api/pglib_opf_case2000_goc__api.m
%%%%%%%%%%%%%%%%%%%%%%%%%%%%%%%%%%%%%%%%%%%%%%%%%%%%%%%%%%%%%%%%%%%%%%%%%%%
%%%%                                                                  %%%%%
%%%%    IEEE PES Power Grid Library - Optimal Power Flow - v20.04     %%%%%
%%%%          (https://github.com/power-grid-lib/pglib-opf)           %%%%%
%%%%             Benchmark Group - Active Power Increase              %%%%%
%%%%                         12 - July - 2020                         %%%%%
%%%%                                                                  %%%%%
%%%%%%%%%%%%%%%%%%%%%%%%%%%%%%%%%%%%%%%%%%%%%%%%%%%%%%%%%%%%%%%%%%%%%%%%%%%
function mpc = pglib_opf_case2000_goc__api
mpc.version = '2';
mpc.baseMVA = 100.0;

%% bus data
%	bus_i	type	Pd	Qd	Gs	Bs	area	Vm	Va	baseKV	zone	Vmax	Vmin
mpc.bus = [
	1	 1	 0.0	 0.0	 0.0	 0.0	 1	    1.00000	    0.00000	 138.0	 1	    1.10000	    0.90000;
	2	 1	 0.0	 0.0	 0.0	 0.0	 1	    1.00000	    0.00000	 69.0	 1	    1.10000	    0.90000;
	3	 1	 97.42	 30.50	 0.0	 0.0	 1	    1.00000	    0.00000	 138.0	 1	    1.10000	    0.90000;
	4	 1	 61.62	 2.69	 0.0	 0.0	 1	    1.00000	    0.00000	 69.0	 1	    1.10000	    0.90000;
	5	 1	 92.52	 29.47	 0.0	 0.0	 1	    1.00000	    0.00000	 69.0	 1	    1.10000	    0.90000;
	6	 1	 81.32	 4.27	 0.0	 0.0	 1	    1.00000	    0.00000	 69.0	 1	    1.10000	    0.90000;
	7	 1	 87.58	 12.19	 0.0	 0.0	 1	    1.00000	    0.00000	 138.0	 1	    1.10000	    0.90000;
	8	 1	 60.45	 10.23	 0.0	 125.081972555	 1	    1.00000	    0.00000	 69.0	 1	    1.10000	    0.90000;
	9	 1	 0.0	 0.0	 0.0	 0.0	 1	    1.00000	    0.00000	 138.0	 1	    1.10000	    0.90000;
	10	 1	 0.0	 0.0	 0.0	 0.0	 1	    1.00000	    0.00000	 69.0	 1	    1.10000	    0.90000;
	11	 1	 136.13	 28.94	 0.0	 0.0	 1	    1.00000	    0.00000	 138.0	 1	    1.10000	    0.90000;
	12	 1	 0.0	 0.0	 0.0	 0.0	 1	    1.00000	    0.00000	 138.0	 1	    1.10000	    0.90000;
	13	 1	 127.69	 17.69	 0.0	 0.0	 1	    1.00000	    0.00000	 69.0	 1	    1.10000	    0.90000;
	14	 1	 0.0	 0.0	 0.0	 0.0	 1	    1.00000	    0.00000	 138.0	 1	    1.10000	    0.90000;
	15	 1	 191.78	 60.30	 0.0	 0.0	 1	    1.00000	    0.00000	 138.0	 1	    1.10000	    0.90000;
	16	 1	 89.89	 11.29	 0.0	 0.0	 1	    1.00000	    0.00000	 69.0	 1	    1.10000	    0.90000;
	17	 1	 70.53	 27.01	 0.0	 0.0	 1	    1.00000	    0.00000	 69.0	 1	    1.10000	    0.90000;
	18	 1	 0.0	 0.0	 0.0	 0.0	 1	    1.00000	    0.00000	 69.0	 1	    1.10000	    0.90000;
	19	 1	 25.12	 1.84	 0.0	 0.0	 1	    1.00000	    0.00000	 69.0	 1	    1.10000	    0.90000;
	20	 1	 0.0	 0.0	 0.0	 0.0	 1	    1.00000	    0.00000	 138.0	 1	    1.10000	    0.90000;
	21	 1	 168.37	 13.35	 0.0	 0.0	 1	    1.00000	    0.00000	 69.0	 1	    1.10000	    0.90000;
	22	 1	 0.0	 0.0	 0.0	 0.0	 1	    1.00000	    0.00000	 138.0	 1	    1.10000	    0.90000;
	23	 1	 73.87	 7.05	 0.0	 0.0	 1	    1.00000	    0.00000	 69.0	 1	    1.10000	    0.90000;
	24	 1	 20.49	 2.93	 0.0	 0.0	 1	    1.00000	    0.00000	 69.0	 1	    1.10000	    0.90000;
	25	 1	 24.74	 1.91	 0.0	 0.0	 1	    1.00000	    0.00000	 69.0	 1	    1.10000	    0.90000;
	26	 1	 0.0	 0.0	 0.0	 0.0	 1	    1.00000	    0.00000	 138.0	 1	    1.10000	    0.90000;
	27	 1	 93.09	 15.98	 0.0	 0.0	 1	    1.00000	    0.00000	 69.0	 1	    1.10000	    0.90000;
	28	 1	 0.0	 0.0	 0.0	 0.0	 1	    1.00000	    0.00000	 138.0	 1	    1.10000	    0.90000;
	29	 1	 123.07	 31.09	 0.0	 0.0	 1	    1.00000	    0.00000	 69.0	 1	    1.10000	    0.90000;
	30	 1	 91.88	 1.32	 0.0	 0.0	 1	    1.00000	    0.00000	 138.0	 1	    1.10000	    0.90000;
	31	 1	 0.0	 0.0	 0.0	 0.0	 1	    1.00000	    0.00000	 138.0	 1	    1.10000	    0.90000;
	32	 1	 0.0	 0.0	 0.0	 0.0	 1	    1.00000	    0.00000	 69.0	 1	    1.10000	    0.90000;
	33	 1	 79.05	 11.82	 0.0	 0.0	 1	    1.00000	    0.00000	 138.0	 1	    1.10000	    0.90000;
	34	 1	 84.65	 14.83	 0.0	 0.0	 1	    1.00000	    0.00000	 138.0	 1	    1.10000	    0.90000;
	35	 1	 94.79	 11.42	 0.0	 0.0	 1	    1.00000	    0.00000	 69.0	 1	    1.10000	    0.90000;
	36	 1	 71.18	 5.18	 0.0	 0.0	 1	    1.00000	    0.00000	 69.0	 1	    1.10000	    0.90000;
	37	 1	 110.17	 8.06	 0.0	 0.0	 1	    1.00000	    0.00000	 69.0	 1	    1.10000	    0.90000;
	38	 1	 31.68	 5.13	 0.0	 0.0	 1	    1.00000	    0.00000	 69.0	 1	    1.10000	    0.90000;
	39	 1	 0.0	 0.0	 0.0	 0.0	 1	    1.00000	    0.00000	 138.0	 1	    1.10000	    0.90000;
	40	 1	 87.77	 31.33	 0.0	 0.0	 1	    1.00000	    0.00000	 69.0	 1	    1.10000	    0.90000;
	41	 1	 51.54	 11.16	 0.0	 0.0	 1	    1.00000	    0.00000	 69.0	 1	    1.10000	    0.90000;
	42	 1	 0.0	 0.0	 0.0	 0.0	 1	    1.00000	    0.00000	 138.0	 1	    1.10000	    0.90000;
	43	 1	 0.0	 0.0	 0.0	 0.0	 1	    1.00000	    0.00000	 69.0	 1	    1.10000	    0.90000;
	44	 1	 104.68	 38.38	 0.0	 0.0	 1	    1.00000	    0.00000	 138.0	 1	    1.10000	    0.90000;
	45	 1	 31.62	 3.83	 0.0	 0.0	 1	    1.00000	    0.00000	 69.0	 1	    1.10000	    0.90000;
	46	 1	 33.09	 4.03	 0.0	 0.0	 1	    1.00000	    0.00000	 69.0	 1	    1.10000	    0.90000;
	47	 1	 0.0	 0.0	 0.0	 0.0	 1	    1.00000	    0.00000	 345.0	 1	    1.10000	    0.90000;
	48	 1	 0.0	 0.0	 0.0	 0.0	 1	    1.00000	    0.00000	 138.0	 1	    1.10000	    0.90000;
	49	 1	 0.0	 0.0	 0.0	 0.0	 1	    1.00000	    0.00000	 69.0	 1	    1.10000	    0.90000;
	50	 1	 66.10	 18.21	 0.0	 0.0	 1	    1.00000	    0.00000	 345.0	 1	    1.10000	    0.90000;
	51	 1	 41.52	 13.89	 0.0	 0.0	 1	    1.00000	    0.00000	 69.0	 1	    1.10000	    0.90000;
	52	 1	 0.0	 0.0	 0.0	 0.0	 1	    1.00000	    0.00000	 345.0	 1	    1.10000	    0.90000;
	53	 1	 0.0	 0.0	 0.0	 0.0	 1	    1.00000	    0.00000	 138.0	 1	    1.10000	    0.90000;
	54	 1	 101.13	 21.10	 0.0	 0.0	 1	    1.00000	    0.00000	 345.0	 1	    1.10000	    0.90000;
	55	 1	 0.0	 0.0	 0.0	 0.0	 1	    1.00000	    0.00000	 138.0	 1	    1.10000	    0.90000;
	56	 1	 0.0	 0.0	 0.0	 0.0	 1	    1.00000	    0.00000	 69.0	 1	    1.10000	    0.90000;
	57	 1	 60.94	 2.90	 0.0	 0.0	 1	    1.00000	    0.00000	 138.0	 1	    1.10000	    0.90000;
	58	 1	 45.02	 11.74	 0.0	 0.0	 1	    1.00000	    0.00000	 69.0	 1	    1.10000	    0.90000;
	59	 1	 33.70	 7.40	 0.0	 0.0	 1	    1.00000	    0.00000	 69.0	 1	    1.10000	    0.90000;
	60	 1	 24.86	 0.52	 0.0	 0.0	 1	    1.00000	    0.00000	 69.0	 1	    1.10000	    0.90000;
	61	 1	 12.67	 2.49	 0.0	 0.0	 1	    1.00000	    0.00000	 69.0	 1	    1.10000	    0.90000;
	62	 1	 11.90	 4.91	 0.0	 0.0	 1	    1.00000	    0.00000	 69.0	 1	    1.10000	    0.90000;
	63	 1	 0.0	 0.0	 0.0	 0.0	 1	    1.00000	    0.00000	 138.0	 1	    1.10000	    0.90000;
	64	 1	 0.0	 0.0	 0.0	 0.0	 1	    1.00000	    0.00000	 69.0	 1	    1.10000	    0.90000;
	65	 1	 26.03	 8.78	 0.0	 0.0	 1	    1.00000	    0.00000	 138.0	 1	    1.10000	    0.90000;
	66	 1	 12.12	 3.00	 0.0	 0.0	 1	    1.00000	    0.00000	 69.0	 1	    1.10000	    0.90000;
	67	 1	 0.0	 0.0	 0.0	 0.0	 1	    1.00000	    0.00000	 138.0	 1	    1.10000	    0.90000;
	68	 1	 0.0	 0.0	 0.0	 0.0	 1	    1.00000	    0.00000	 69.0	 1	    1.10000	    0.90000;
	69	 1	 14.83	 5.08	 0.0	 0.0	 1	    1.00000	    0.00000	 138.0	 1	    1.10000	    0.90000;
	70	 1	 11.31	 0.62	 0.0	 0.0	 1	    1.00000	    0.00000	 69.0	 1	    1.10000	    0.90000;
	71	 1	 0.0	 0.0	 0.0	 0.0	 1	    1.00000	    0.00000	 138.0	 1	    1.10000	    0.90000;
	72	 1	 18.59	 4.01	 0.0	 0.0	 1	    1.00000	    0.00000	 69.0	 1	    1.10000	    0.90000;
	73	 1	 0.0	 0.0	 0.0	 0.0	 1	    1.00000	    0.00000	 138.0	 1	    1.10000	    0.90000;
	74	 1	 19.87	 1.06	 0.0	 8.49688906785	 1	    1.00000	    0.00000	 69.0	 1	    1.10000	    0.90000;
	75	 1	 23.08	 4.88	 0.0	 0.0	 1	    1.00000	    0.00000	 69.0	 1	    1.10000	    0.90000;
	76	 1	 0.0	 0.0	 0.0	 0.0	 1	    1.00000	    0.00000	 138.0	 1	    1.10000	    0.90000;
	77	 1	 0.0	 0.0	 0.0	 0.0	 1	    1.00000	    0.00000	 69.0	 1	    1.10000	    0.90000;
	78	 1	 40.84	 4.68	 0.0	 0.0	 1	    1.00000	    0.00000	 138.0	 1	    1.10000	    0.90000;
	79	 1	 0.0	 0.0	 0.0	 0.0	 1	    1.00000	    0.00000	 138.0	 1	    1.10000	    0.90000;
	80	 1	 0.0	 0.0	 0.0	 0.0	 1	    1.00000	    0.00000	 69.0	 1	    1.10000	    0.90000;
	81	 1	 13.69	 1.67	 0.0	 0.0	 1	    1.00000	    0.00000	 138.0	 1	    1.10000	    0.90000;
	82	 1	 12.04	 0.51	 0.0	 0.0	 1	    1.00000	    0.00000	 69.0	 1	    1.10000	    0.90000;
	83	 1	 0.0	 0.0	 0.0	 0.0	 1	    1.00000	    0.00000	 138.0	 1	    1.10000	    0.90000;
	84	 1	 24.95	 5.19	 0.0	 0.0	 1	    1.00000	    0.00000	 138.0	 1	    1.10000	    0.90000;
	85	 1	 0.0	 0.0	 0.0	 0.0	 1	    1.00000	    0.00000	 138.0	 1	    1.10000	    0.90000;
	86	 1	 0.0	 0.0	 0.0	 0.0	 1	    1.00000	    0.00000	 138.0	 1	    1.10000	    0.90000;
	87	 1	 0.0	 0.0	 0.0	 0.0	 1	    1.00000	    0.00000	 69.0	 1	    1.10000	    0.90000;
	88	 1	 80.96	 12.74	 0.0	 0.0	 1	    1.00000	    0.00000	 138.0	 1	    1.10000	    0.90000;
	89	 1	 0.0	 0.0	 0.0	 0.0	 1	    1.00000	    0.00000	 138.0	 1	    1.10000	    0.90000;
	90	 1	 0.0	 0.0	 0.0	 0.0	 1	    1.00000	    0.00000	 69.0	 1	    1.10000	    0.90000;
	91	 1	 98.82	 10.27	 0.0	 0.0	 1	    1.00000	    0.00000	 138.0	 1	    1.10000	    0.90000;
	92	 1	 44.90	 14.05	 0.0	 0.0	 1	    1.00000	    0.00000	 69.0	 1	    1.10000	    0.90000;
	93	 1	 28.64	 4.33	 0.0	 13.0031149174	 1	    1.00000	    0.00000	 69.0	 1	    1.10000	    0.90000;
	94	 1	 30.12	 3.27	 0.0	 0.0	 1	    1.00000	    0.00000	 69.0	 1	    1.10000	    0.90000;
	95	 1	 92.80	 15.92	 0.0	 0.00107396248384	 1	    1.00000	    0.00000	 69.0	 1	    1.10000	    0.90000;
	96	 1	 0.0	 0.0	 0.0	 0.0	 1	    1.00000	    0.00000	 345.0	 1	    1.10000	    0.90000;
	97	 1	 0.0	 0.0	 0.0	 0.0	 1	    1.00000	    0.00000	 138.0	 1	    1.10000	    0.90000;
	98	 1	 0.0	 0.0	 0.0	 0.0	 1	    1.00000	    0.00000	 69.0	 1	    1.10000	    0.90000;
	99	 1	 112.08	 26.91	 0.0	 0.0	 1	    1.00000	    0.00000	 138.0	 1	    1.10000	    0.90000;
	100	 1	 0.0	 0.0	 0.0	 0.0	 1	    1.00000	    0.00000	 138.0	 1	    1.10000	    0.90000;
	101	 1	 0.0	 0.0	 0.0	 0.0	 1	    1.00000	    0.00000	 69.0	 1	    1.10000	    0.90000;
	102	 1	 123.97	 11.70	 0.0	 0.0	 1	    1.00000	    0.00000	 138.0	 1	    1.10000	    0.90000;
	103	 1	 66.25	 2.01	 0.0	 0.0	 1	    1.00000	    0.00000	 69.0	 1	    1.10000	    0.90000;
	104	 1	 91.96	 21.22	 0.0	 0.0	 1	    1.00000	    0.00000	 69.0	 1	    1.10000	    0.90000;
	105	 1	 0.0	 0.0	 0.0	 0.000699764345338	 1	    1.00000	    0.00000	 345.0	 1	    1.10000	    0.90000;
	106	 1	 0.0	 0.0	 0.0	 0.0	 1	    1.00000	    0.00000	 138.0	 1	    1.10000	    0.90000;
	107	 1	 0.0	 0.0	 0.0	 0.0	 1	    1.00000	    0.00000	 69.0	 1	    1.10000	    0.90000;
	108	 1	 122.05	 26.90	 0.0	 0.0	 1	    1.00000	    0.00000	 345.0	 1	    1.10000	    0.90000;
	109	 1	 65.68	 11.22	 0.0	 0.0	 1	    1.00000	    0.00000	 69.0	 1	    1.10000	    0.90000;
	110	 1	 0.0	 0.0	 0.0	 0.0	 1	    1.00000	    0.00000	 138.0	 1	    1.10000	    0.90000;
	111	 1	 0.0	 0.0	 0.0	 0.0	 1	    1.00000	    0.00000	 69.0	 1	    1.10000	    0.90000;
	112	 1	 108.69	 16.64	 0.0	 0.0	 1	    1.00000	    0.00000	 138.0	 1	    1.10000	    0.90000;
	113	 1	 68.44	 5.16	 0.0	 0.0	 1	    1.00000	    0.00000	 69.0	 1	    1.10000	    0.90000;
	114	 1	 10.28	 1.86	 0.0	 -19.5770110823	 1	    1.00000	    0.00000	 69.0	 1	    1.10000	    0.90000;
	115	 1	 59.18	 16.40	 0.0	 0.0	 1	    1.00000	    0.00000	 69.0	 1	    1.10000	    0.90000;
	116	 1	 21.71	 3.09	 0.0	 0.0	 1	    1.00000	    0.00000	 69.0	 1	    1.10000	    0.90000;
	117	 1	 52.00	 1.23	 0.0	 0.0	 1	    1.00000	    0.00000	 69.0	 1	    1.10000	    0.90000;
	118	 1	 21.84	 3.30	 0.0	 0.0	 1	    1.00000	    0.00000	 69.0	 1	    1.10000	    0.90000;
	119	 1	 65.98	 11.78	 0.0	 0.0	 1	    1.00000	    0.00000	 69.0	 1	    1.10000	    0.90000;
	120	 1	 97.57	 43.05	 0.0	 0.0	 1	    1.00000	    0.00000	 69.0	 1	    1.10000	    0.90000;
	121	 1	 0.0	 0.0	 0.0	 0.0	 1	    1.00000	    0.00000	 138.0	 1	    1.10000	    0.90000;
	122	 1	 0.0	 0.0	 0.0	 0.0	 1	    1.00000	    0.00000	 69.0	 1	    1.10000	    0.90000;
	123	 1	 119.60	 23.99	 0.0	 0.0	 1	    1.00000	    0.00000	 138.0	 1	    1.10000	    0.90000;
	124	 1	 0.0	 0.0	 0.0	 0.0	 1	    1.00000	    0.00000	 138.0	 1	    1.10000	    0.90000;
	125	 1	 0.0	 0.0	 0.0	 0.0	 1	    1.00000	    0.00000	 69.0	 1	    1.10000	    0.90000;
	126	 1	 77.33	 18.89	 0.0	 0.0	 1	    1.00000	    0.00000	 138.0	 1	    1.10000	    0.90000;
	127	 1	 39.72	 6.45	 0.0	 0.0	 1	    1.00000	    0.00000	 69.0	 1	    1.10000	    0.90000;
	128	 1	 47.95	 7.47	 0.0	 0.000271209085663	 1	    1.00000	    0.00000	 69.0	 1	    1.10000	    0.90000;
	129	 1	 0.0	 0.0	 0.0	 0.0	 1	    1.00000	    0.00000	 69.0	 1	    1.10000	    0.90000;
	130	 1	 112.88	 12.28	 0.0	 0.0	 1	    1.00000	    0.00000	 69.0	 1	    1.10000	    0.90000;
	131	 1	 63.59	 21.89	 0.0	 168.570002396	 1	    1.00000	    0.00000	 69.0	 1	    1.10000	    0.90000;
	132	 1	 0.0	 0.0	 0.0	 0.0	 1	    1.00000	    0.00000	 138.0	 1	    1.10000	    0.90000;
	133	 1	 109.69	 13.03	 0.0	 0.0	 1	    1.00000	    0.00000	 69.0	 1	    1.10000	    0.90000;
	134	 1	 0.0	 0.0	 0.0	 0.0	 1	    1.00000	    0.00000	 138.0	 1	    1.10000	    0.90000;
	135	 1	 0.0	 0.0	 0.0	 0.0	 1	    1.00000	    0.00000	 138.0	 1	    1.10000	    0.90000;
	136	 1	 0.0	 0.0	 0.0	 0.0	 1	    1.00000	    0.00000	 69.0	 1	    1.10000	    0.90000;
	137	 1	 208.90	 17.11	 0.0	 0.0	 1	    1.00000	    0.00000	 138.0	 1	    1.10000	    0.90000;
	138	 1	 66.48	 5.05	 0.0	 0.0	 1	    1.00000	    0.00000	 69.0	 1	    1.10000	    0.90000;
	139	 1	 0.0	 0.0	 0.0	 0.0	 1	    1.00000	    0.00000	 138.0	 1	    1.10000	    0.90000;
	140	 1	 151.29	 58.60	 0.0	 0.0	 1	    1.00000	    0.00000	 69.0	 1	    1.10000	    0.90000;
	141	 1	 0.0	 0.0	 0.0	 0.0	 1	    1.00000	    0.00000	 138.0	 1	    1.10000	    0.90000;
	142	 1	 0.0	 0.0	 0.0	 0.0	 1	    1.00000	    0.00000	 138.0	 1	    1.10000	    0.90000;
	143	 1	 0.0	 0.0	 0.0	 0.0	 1	    1.00000	    0.00000	 69.0	 1	    1.10000	    0.90000;
	144	 1	 125.00	 15.43	 0.0	 0.0	 1	    1.00000	    0.00000	 138.0	 1	    1.10000	    0.90000;
	145	 1	 70.80	 5.31	 0.0	 0.0	 1	    1.00000	    0.00000	 69.0	 1	    1.10000	    0.90000;
	146	 1	 61.78	 8.77	 0.0	 0.0	 1	    1.00000	    0.00000	 69.0	 1	    1.10000	    0.90000;
	147	 1	 0.0	 0.0	 0.0	 0.0	 1	    1.00000	    0.00000	 138.0	 1	    1.10000	    0.90000;
	148	 1	 0.0	 0.0	 0.0	 0.0	 1	    1.00000	    0.00000	 69.0	 1	    1.10000	    0.90000;
	149	 1	 106.82	 16.16	 0.0	 0.0	 1	    1.00000	    0.00000	 138.0	 1	    1.10000	    0.90000;
	150	 1	 77.78	 6.28	 0.0	 0.0	 1	    1.00000	    0.00000	 69.0	 1	    1.10000	    0.90000;
	151	 1	 0.0	 0.0	 0.0	 0.0	 1	    1.00000	    0.00000	 138.0	 1	    1.10000	    0.90000;
	152	 1	 0.0	 0.0	 0.0	 0.0	 1	    1.00000	    0.00000	 69.0	 1	    1.10000	    0.90000;
	153	 1	 84.18	 6.34	 0.0	 0.0	 1	    1.00000	    0.00000	 138.0	 1	    1.10000	    0.90000;
	154	 1	 117.91	 16.10	 0.0	 0.0	 1	    1.00000	    0.00000	 69.0	 1	    1.10000	    0.90000;
	155	 1	 74.40	 2.14	 0.0	 0.0	 1	    1.00000	    0.00000	 69.0	 1	    1.10000	    0.90000;
	156	 1	 74.33	 21.39	 0.0	 0.0	 1	    1.00000	    0.00000	 69.0	 1	    1.10000	    0.90000;
	157	 1	 70.51	 11.94	 0.0	 0.0	 1	    1.00000	    0.00000	 138.0	 1	    1.10000	    0.90000;
	158	 1	 111.05	 17.03	 0.0	 0.0	 1	    1.00000	    0.00000	 138.0	 1	    1.10000	    0.90000;
	159	 1	 0.0	 0.0	 0.0	 371.14047516	 1	    1.00000	    0.00000	 345.0	 1	    1.10000	    0.90000;
	160	 1	 0.0	 0.0	 0.0	 0.0	 1	    1.00000	    0.00000	 138.0	 1	    1.10000	    0.90000;
	161	 1	 0.0	 0.0	 0.0	 0.0	 1	    1.00000	    0.00000	 69.0	 1	    1.10000	    0.90000;
	162	 1	 109.94	 10.30	 0.0	 0.0	 1	    1.00000	    0.00000	 138.0	 1	    1.10000	    0.90000;
	163	 1	 66.43	 10.44	 0.0	 0.0	 1	    1.00000	    0.00000	 69.0	 1	    1.10000	    0.90000;
	164	 1	 43.23	 7.43	 0.0	 0.0	 1	    1.00000	    0.00000	 69.0	 1	    1.10000	    0.90000;
	165	 1	 0.0	 0.0	 0.0	 0.0	 1	    1.00000	    0.00000	 138.0	 1	    1.10000	    0.90000;
	166	 1	 0.0	 0.0	 0.0	 0.0	 1	    1.00000	    0.00000	 69.0	 1	    1.10000	    0.90000;
	167	 1	 210.72	 82.95	 0.0	 0.0	 1	    1.00000	    0.00000	 138.0	 1	    1.10000	    0.90000;
	168	 1	 38.87	 4.79	 0.0	 0.0	 1	    1.00000	    0.00000	 69.0	 1	    1.10000	    0.90000;
	169	 1	 74.27	 12.79	 0.0	 27.4224213741	 1	    1.00000	    0.00000	 69.0	 1	    1.10000	    0.90000;
	170	 1	 0.0	 0.0	 0.0	 0.0	 1	    1.00000	    0.00000	 138.0	 1	    1.10000	    0.90000;
	171	 1	 0.0	 0.0	 0.0	 0.0	 1	    1.00000	    0.00000	 69.0	 1	    1.10000	    0.90000;
	172	 1	 100.44	 15.35	 0.0	 0.0	 1	    1.00000	    0.00000	 138.0	 1	    1.10000	    0.90000;
	173	 1	 76.99	 25.79	 0.0	 61.4828684306	 1	    1.00000	    0.00000	 69.0	 1	    1.10000	    0.90000;
	174	 1	 0.0	 0.0	 0.0	 0.0	 1	    1.00000	    0.00000	 138.0	 1	    1.10000	    0.90000;
	175	 1	 0.0	 0.0	 0.0	 0.0	 1	    1.00000	    0.00000	 69.0	 1	    1.10000	    0.90000;
	176	 1	 104.26	 7.91	 0.0	 0.0	 1	    1.00000	    0.00000	 138.0	 1	    1.10000	    0.90000;
	177	 1	 50.45	 8.99	 0.0	 60.0971715131	 1	    1.00000	    0.00000	 69.0	 1	    1.10000	    0.90000;
	178	 1	 33.18	 4.74	 0.0	 41.5651119656	 1	    1.00000	    0.00000	 69.0	 1	    1.10000	    0.90000;
	179	 1	 66.61	 5.05	 0.0	 0.0	 1	    1.00000	    0.00000	 69.0	 1	    1.10000	    0.90000;
	180	 1	 46.15	 4.31	 0.0	 0.0	 1	    1.00000	    0.00000	 69.0	 1	    1.10000	    0.90000;
	181	 1	 0.0	 0.0	 0.0	 0.0	 1	    1.00000	    0.00000	 138.0	 1	    1.10000	    0.90000;
	182	 1	 0.0	 0.0	 0.0	 0.0	 1	    1.00000	    0.00000	 69.0	 1	    1.10000	    0.90000;
	183	 1	 115.18	 17.47	 0.0	 0.0	 1	    1.00000	    0.00000	 138.0	 1	    1.10000	    0.90000;
	184	 1	 59.28	 2.70	 0.0	 0.0	 1	    1.00000	    0.00000	 69.0	 1	    1.10000	    0.90000;
	185	 1	 42.54	 4.74	 0.0	 0.0	 1	    1.00000	    0.00000	 69.0	 1	    1.10000	    0.90000;
	186	 1	 54.73	 8.37	 0.0	 -63.3799211635	 1	    1.00000	    0.00000	 69.0	 1	    1.10000	    0.90000;
	187	 1	 51.70	 10.16	 0.0	 0.0	 1	    1.00000	    0.00000	 69.0	 1	    1.10000	    0.90000;
	188	 1	 0.0	 0.0	 0.0	 0.0	 1	    1.00000	    0.00000	 138.0	 1	    1.10000	    0.90000;
	189	 1	 0.0	 0.0	 0.0	 0.0	 1	    1.00000	    0.00000	 69.0	 1	    1.10000	    0.90000;
	190	 1	 83.93	 12.18	 0.0	 0.0	 1	    1.00000	    0.00000	 138.0	 1	    1.10000	    0.90000;
	191	 1	 0.0	 0.0	 0.0	 0.0	 1	    1.00000	    0.00000	 138.0	 1	    1.10000	    0.90000;
	192	 1	 78.21	 21.90	 0.0	 0.0	 1	    1.00000	    0.00000	 69.0	 1	    1.10000	    0.90000;
	193	 1	 0.0	 0.0	 0.0	 0.0	 1	    1.00000	    0.00000	 138.0	 1	    1.10000	    0.90000;
	194	 1	 0.0	 0.0	 0.0	 0.0	 1	    1.00000	    0.00000	 138.0	 1	    1.10000	    0.90000;
	195	 1	 0.0	 0.0	 0.0	 0.0	 1	    1.00000	    0.00000	 69.0	 1	    1.10000	    0.90000;
	196	 1	 72.58	 7.82	 0.0	 0.0	 1	    1.00000	    0.00000	 138.0	 1	    1.10000	    0.90000;
	197	 1	 60.43	 8.71	 0.0	 0.0	 1	    1.00000	    0.00000	 69.0	 1	    1.10000	    0.90000;
	198	 1	 0.0	 0.0	 0.0	 0.0	 1	    1.00000	    0.00000	 69.0	 1	    1.10000	    0.90000;
	199	 1	 43.36	 3.78	 0.0	 0.000175080156541	 1	    1.00000	    0.00000	 69.0	 1	    1.10000	    0.90000;
	200	 1	 54.27	 13.89	 0.0	 0.0	 1	    1.00000	    0.00000	 69.0	 1	    1.10000	    0.90000;
...
];

%% generator data
%	bus	Pg	Qg	Qmax	Qmin	Vg	mBase	status	Pmax	Pmin
mpc.gen = [
	511	 818.967	 0.0	 791.0	 -791.0	 1.0	 286.92	 1	 1582	 55.934; % COW
	512	 198.17825	 0.0	 207.6	 -207.6	 1.0	 286.92	 1	 328	 68.3565; % NG
	513	 246.47	 0.0	 217.0	 -217.0	 1.0	 286.92	 1	 434	 58.94; % NG
	514	 219.479	 0.0	 190.0	 -190.0	 1.0	 286.92	 1	 379	 59.958; % COW
	515	 210.28275	 0.0	 217.2	 -217.2	 1.0	 286.92	 1	 349	 71.5655; % NG
	516	 202.37175	 0.0	 186.0	 -186.0	 1.0	 286.92	 1	 372	 32.7435; % NG
	518	 10.641	 2.244	 13.488	 -9.0	 1.0	 26.5	 1	 17	 4.282; % NG
	522	 828.8135	 0.0	 731.0	 -731.0	 1.0	 818.6	 1	 1461	 196.627; % COW
	523	 617.5995	 0.0	 595.0	 -595.0	 1.0	 818.6	 1	 1189	 46.199; % COW
	525	 0.0	 0.0	 54.0	 -54.0	 1.0	 5.93	 0	 107	 0.65; % NG
	525	 0.0	 0.0	 3.02	 -2.0	 1.0	 5.93	 0	 3	 0.9165; % PEL
	525	 0.0	 0.0	 121.0	 -121.0	 1.0	 5.93	 0	 242	 1.038; % NG
	525	 0.0	 0.0	 3.02	 -0.659	 1.0	 5.93	 0	 0	 1.712; % NG
	525	 0.0	 0.0	 21.0	 -21.0	 1.0	 5.93	 0	 42	 0.79; % NG
	525	 0.0	 0.0	 18.0	 -18.0	 1.0	 5.93	 0	 35	 0.838; % PEL
	529	 0.0	 0.0	 124.603	 -36.0	 1.0	 244.8	 0	 71	 20.3095; % NG
	530	 84.5255	 0.0	 283.2	 -283.2	 1.0	 244.8	 1	 144	 25.051; % NG
	531	 215.33025	 0.0	 337.2	 -337.2	 1.0	 244.8	 1	 379	 51.6605; % NG
	532	 176.63425	 0.0	 297.6	 -297.6	 1.0	 244.8	 1	 307	 46.2685; % NG
	533	 144.1545	 0.0	 268.8	 -268.8	 1.0	 244.8	 1	 247	 41.309; % NG
	536	 395.64	 0.0	 358.0	 -358.0	 1.0	 402.0	 1	 716	 75.28; % NG
	537	 333.7845	 0.0	 291.0	 -291.0	 1.0	 402.0	 1	 582	 85.569; % NG
	539	 2.10875	 0.0	 10.8	 -10.8	 1.0	 3.67	 1	 4	 0.2175; % PEL
	539	 1.82	 0.0	 10.8	 -10.8	 1.0	 3.67	 1	 3	 0.64; % PEL
	539	 4.45425	 0.0	 10.8	 -10.8	 1.0	 3.67	 1	 8	 0.9085; % NG
	539	 3.22475	 0.0	 10.8	 -10.8	 1.0	 3.67	 1	 6	 0.4495; % NG
	539	 0.0	 0.0	 5.0	 -5.0	 1.0	 3.67	 0	 10	 0.6445; % PEL
	539	 0.0	 0.0	 57.0	 -57.0	 1.0	 3.67	 0	 113	 0.5795; % NG
	542	 0.0	 0.0	 88.43	 -19.284	 1.0	 173.73	 0	 8	 56.291; % NG
	543	 209.012	 0.0	 197.0	 -197.0	 1.0	 173.73	 1	 393	 25.024; % NG
	544	 241.164	 0.0	 221.0	 -221.0	 1.0	 173.73	 1	 442	 40.328; % NG
	545	 0.0	 0.0	 88.43	 -29.0	 1.0	 173.73	 0	 58	 36.544; % NG
	546	 202.279	 0.0	 188.0	 -188.0	 1.0	 173.73	 1	 375	 29.558; % NG
	547	 229.81825	 0.0	 218.0	 -218.0	 1.0	 173.73	 1	 435	 24.6365; % NG
	551	 868.04475	 0.0	 826.0	 -826.0	 1.0	 1080.0	 1	 1652	 84.0895; % COW
	552	 904.6805	 0.0	 862.0	 -862.0	 1.0	 1080.0	 1	 1723	 86.361; % COW
	554	 92.36625	 0.0	 103.2	 -103.2	 1.0	 68.4	 1	 169	 15.7325; % NG
	554	 78.17275	 0.0	 103.2	 -103.2	 1.0	 68.4	 1	 147	 9.3455; % NG
	554	 74.8985	 0.0	 103.2	 -103.2	 1.0	 68.4	 1	 140	 9.797; % PEL
	554	 184.9395	 0.0	 178.0	 -178.0	 1.0	 68.4	 1	 356	 13.879; % NG
	554	 0.0	 0.0	 34.816	 -31.0	 1.0	 68.4	 0	 62	 13.43; % PEL
	554	 90.468	 0.0	 103.2	 -103.2	 1.0	 68.4	 1	 174	 6.936; % PEL
	558	 107.514	 0.0	 104.0	 -104.0	 1.0	 136.8	 1	 208	 7.028; % NG
	559	 0.0	 0.0	 69.631	 -15.185	 1.0	 136.8	 0	 4	 64.405; % NG
	560	 0.0	 0.0	 69.631	 -55.0	 1.0	 136.8	 0	 110	 20.516; % NG
	561	 108.162	 0.0	 101.0	 -101.0	 1.0	 136.8	 1	 202	 14.324; % NG
	562	 94.74075	 0.0	 90.0	 -90.0	 1.0	 136.8	 1	 179	 10.4815; % NG
	563	 97.63525	 0.0	 89.0	 -89.0	 1.0	 136.8	 1	 177	 18.2705; % COW
	567	 379.25925	 -12.9775	 361.645	 -387.6	 1.0	 710.5	 1	 652	 106.5185; % COW
	568	 250.36025	 -15.3775	 361.645	 -392.4	 1.0	 710.5	 1	 436	 64.7205; % COW
	569	 680.548	 0.0	 597.0	 -597.0	 1.0	 710.5	 1	 1193	 168.096; % COW
	570	 315.0375	 -17.7775	 361.645	 -397.2	 1.0	 710.5	 1	 592	 38.075; % COW
	571	 0.0	 0.0	 361.645	 -154.0	 1.0	 710.5	 0	 308	 36.7355; % COW
	572	 0.0	 0.0	 361.645	 -157.0	 1.0	 710.5	 0	 313	 108.3245; % COW
	574	 0.0	 0.0	 82.0	 -82.0	 1.0	 124.0	 0	 164	 28.5025; % NG
	575	 126.4	 0.0	 115.0	 -115.0	 1.0	 124.0	 1	 229	 23.8; % NG
	576	 114.54625	 0.0	 102.0	 -102.0	 1.0	 124.0	 1	 204	 25.0925; % NG
	577	 68.175	 0.0	 65.0	 -65.0	 1.0	 124.0	 1	 130	 6.35; % NG
	578	 117.4265	 0.0	 113.0	 -113.0	 1.0	 124.0	 1	 226	 8.853; % COW
	579	 0.0	 0.0	 197.0	 -197.0	 1.0	 124.0	 0	 394	 18.221; % COW
	581	 124.37075	 0.0	 123.0	 -123.0	 1.0	 21.08	 1	 246	 2.7415; % PEL
	582	 17.55725	 0.0	 21.6	 -21.6	 1.0	 21.08	 1	 32	 3.1145; % PEL
	582	 56.0635	 0.0	 55.0	 -55.0	 1.0	 21.08	 1	 109	 3.127; % PEL
	582	 0.0	 0.0	 17.0	 -17.0	 1.0	 21.08	 0	 33	 3.741; % PEL
	582	 23.07925	 0.0	 22.0	 -22.0	 1.0	 21.08	 1	 44	 2.1585; % NG
	582	 0.0	 0.0	 9.825	 -6.0	 1.0	 21.08	 0	 11	 3.842; % PEL
	587	 218.261	 0.0	 204.0	 -204.0	 1.0	 181.0	 1	 408	 28.522; % NG
	588	 122.78875	 0.0	 264.0	 -264.0	 1.0	 181.0	 1	 213	 32.5775; % NG
	590	 20.0315	 0.0	 88.8	 -88.8	 1.0	 15.7	 1	 39	 1.063; % NG
	590	 23.251	 0.0	 88.8	 -88.8	 1.0	 15.7	 1	 44	 2.502; % PEL
	594	 235.14175	 0.0	 405.6	 -405.6	 1.0	 323.75	 1	 399	 71.2835; % COW
	595	 0.0	 0.0	 251.0	 -251.0	 1.0	 323.75	 0	 501	 27.389; % COW
	596	 187.8015	 0.0	 404.4	 -404.4	 1.0	 323.75	 1	 302	 73.603; % NG
	597	 253.201	 0.0	 402.0	 -402.0	 1.0	 323.75	 1	 483	 23.402; % NG
	599	 0.0	 0.0	 50.0	 -50.0	 1.0	 6.8	 0	 100	 1.662; % PEL
	599	 0.0	 0.0	 38.0	 -38.0	 1.0	 6.8	 0	 75	 0.349; % NG
	599	 0.0	 0.0	 10.0	 -10.0	 1.0	 6.8	 0	 19	 0.4525; % PEL
	599	 0.0	 0.0	 30.0	 -30.0	 1.0	 6.8	 0	 59	 0.5505; % PEL
	599	 0.0	 0.0	 60.0	 -60.0	 1.0	 6.8	 0	 119	 1.6005; % NG
	599	 0.0	 0.0	 53.0	 -53.0	 1.0	 6.8	 0	 105	 1.2845; % PEL
	1208	 0.0	 0.0	 33.0	 -33.0	 1.0	 11.2	 0	 66	 1.279; % COW
	1208	 0.0	 0.0	 17.0	 -17.0	 1.0	 11.2	 0	 34	 1.8025; % NG
	1212	 107.74625	 0.0	 98.0	 -98.0	 1.0	 142.5	 1	 195	 20.4925; % NG
	1213	 0.0	 0.0	 139.0	 -139.0	 1.0	 142.5	 0	 278	 27.686; % COW
	1214	 83.20325	 0.0	 76.0	 -76.0	 1.0	 142.5	 1	 151	 15.4065; % NG
	1216	 68.81225	 0.0	 62.0	 -62.0	 1.0	 87.0	 1	 124	 13.6245; % NG
	1216	 75.7985	 0.0	 72.0	 -72.0	 1.0	 87.0	 1	 143	 8.597; % NG
	1219	 260.48425	 0.0	 254.0	 -254.0	 1.0	 84.2	 1	 507	 13.9685; % NG
	1219	 224.325	 0.0	 222.0	 -222.0	 1.0	 84.2	 1	 444	 4.65; % NG
	1219	 162.67375	 0.0	 160.0	 -160.0	 1.0	 84.2	 1	 320	 5.3475; % NG
	1219	 167.41	 0.0	 162.0	 -162.0	 1.0	 84.2	 1	 323	 11.82; % NG
	1219	 197.3395	 0.0	 190.0	 -190.0	 1.0	 84.2	 1	 380	 14.679; % NG
	1219	 211.00475	 0.0	 205.0	 -205.0	 1.0	 84.2	 1	 409	 13.0095; % NG
	1226	 0.0	 0.0	 101.23	 -22.076	 1.0	 198.88	 0	 30	 23.543; % NG
	1227	 267.03025	 0.0	 253.0	 -253.0	 1.0	 198.88	 1	 506	 28.0605; % NG
	1228	 119.46375	 0.0	 160.8	 -160.8	 1.0	 198.88	 1	 208	 30.9275; % NG
	1229	 153.06225	 0.0	 156.0	 -156.0	 1.0	 198.88	 1	 270	 36.1245; % NG
	1230	 0.0	 0.0	 101.23	 -22.076	 1.0	 198.88	 0	 10	 76.895; % NG
	1232	 0.0	 0.0	 56.0	 -56.0	 1.0	 5.35	 0	 111	 1.111; % NG
	1233	 0.0	 0.0	 47.0	 -47.0	 1.0	 5.35	 0	 94	 1.2585; % NG
	1237	 480.91675	 0.0	 468.0	 -468.0	 1.0	 205.7	 1	 935	 26.8335; % COW
	1238	 0.0	 0.0	 104.701	 -22.833	 1.0	 205.7	 0	 23	 15.4435; % NG
	1243	 314.12025	 0.0	 291.0	 -291.0	 1.0	 199.4	 1	 582	 46.2405; % COW
	1244	 205.7925	 0.0	 194.0	 -194.0	 1.0	 199.4	 1	 388	 23.585; % NG
	1246	 0.0	 0.0	 23.0	 -23.0	 1.0	 42.0	 0	 45	 8.9965; % NG
	1251	 109.24125	 0.0	 105.0	 -105.0	 1.0	 180.4	 1	 209	 9.4825; % NG
	1252	 96.649	 0.912	 91.824	 -90.0	 1.0	 180.4	 1	 179	 14.298; % COW
	1253	 0.0	 0.0	 91.824	 -46.0	 1.0	 180.4	 0	 91	 31.1945; % NG
	1256	 330.6455	 0.0	 310.0	 -310.0	 1.0	 335.73	 1	 619	 42.291; % COW
	1257	 0.0	 0.0	 268.0	 -268.0	 1.0	 335.73	 0	 535	 64.636; % COW
	1258	 138.541	 22.944	 170.888	 -125.0	 1.0	 335.73	 1	 249	 28.082; % NG
	1259	 176.61175	 5.944	 170.888	 -159.0	 1.0	 335.73	 1	 318	 35.2235; % NG
	1260	 0.0	 0.0	 170.888	 -88.0	 1.0	 335.73	 0	 175	 23.683; % COW
	1261	 312.69225	 0.0	 293.0	 -293.0	 1.0	 335.73	 1	 585	 40.3845; % NG
	1262	 0.0	 0.0	 52.0	 -52.0	 1.0	 1.7	 0	 104	 0.1075; % PEL
	1266	 0.0	 0.0	 216.457	 -89.0	 1.0	 464.5	 0	 177	 58.586; % COW
	1267	 0.0	 0.0	 216.457	 -56.669	 1.0	 464.5	 0	 2	 81.768; % NG
	1271	 244.1215	 0.0	 224.0	 -224.0	 1.0	 182.0	 1	 447	 41.243; % NG
	1272	 143.16375	 0.0	 124.0	 -124.0	 1.0	 182.0	 1	 247	 39.3275; % NG
	1273	 134.65325	 0.0	 125.0	 -125.0	 1.0	 182.0	 1	 249	 20.3065; % NG
	1274	 112.99425	 0.0	 96.0	 -96.0	 1.0	 182.0	 1	 192	 33.9885; % NG
	1277	 0.0	 0.0	 31.0	 -31.0	 1.0	 45.53	 0	 62	 11.356; % NG
	1277	 0.0	 0.0	 82.0	 -82.0	 1.0	 45.53	 0	 164	 2.357; % NG
	1277	 0.0	 0.0	 23.176	 -17.0	 1.0	 45.53	 0	 34	 4.18; % NG
	1281	 120.8485	 8.2775	 127.555	 -111.0	 1.0	 250.6	 1	 222	 19.697; % NG
	1282	 386.29375	 0.0	 364.0	 -364.0	 1.0	 250.6	 1	 727	 45.5875; % COW
	1283	 0.0	 0.0	 127.555	 -101.0	 1.0	 250.6	 0	 202	 52.255; % NG
	1284	 336.1035	 0.0	 306.0	 -306.0	 1.0	 250.6	 1	 611	 61.207; % NG
	1285	 206.5995	 0.0	 192.0	 -192.0	 1.0	 250.6	 1	 383	 30.199; % NG
	1289	 0.0	 0.0	 109.299	 -95.0	 1.0	 214.73	 0	 190	 53.2455; % NG
	1290	 0.0	 0.0	 109.299	 -69.0	 1.0	 214.73	 0	 137	 50.1785; % COW
	1291	 117.51525	 4.6495	 109.299	 -100.0	 1.0	 214.73	 1	 200	 35.0305; % NG
	1295	 150.70225	 12.7945	 164.789	 -139.2	 1.0	 323.75	 1	 239	 62.4045; % NG
	1296	 203.2475	 0.3945	 164.789	 -164.0	 1.0	 323.75	 1	 327	 79.495; % NG
	1297	 232.11	 0.0	 202.0	 -202.0	 1.0	 323.75	 1	 404	 60.22; % COW
	1298	 139.87675	 13.9945	 164.789	 -136.8	 1.0	 323.75	 1	 211	 68.7535; % NG
	1300	 0.0	 0.0	 7.0	 -7.0	 1.0	 2.9	 0	 13	 0.5235; % PEL
	1300	 233.54475	 0.0	 226.0	 -226.0	 1.0	 69.9	 1	 452	 15.0895; % NG
	1300	 194.01025	 0.0	 187.0	 -187.0	 1.0	 69.9	 1	 374	 14.0205; % NG
	1300	 217.1085	 0.0	 215.0	 -215.0	 1.0	 69.9	 1	 429	 5.217; % NG
	1300	 215.34825	 0.0	 210.0	 -210.0	 1.0	 69.9	 1	 419	 11.6965; % PEL
	1301	 0.0	 0.0	 44.0	 -44.0	 1.0	 2.9	 0	 88	 0.2485; % NG
	1303	 353.30275	 0.0	 342.0	 -342.0	 1.0	 229.43	 1	 684	 22.6055; % NG
	1303	 0.0	 0.0	 116.782	 -57.0	 1.0	 229.43	 0	 113	 25.9035; % NG
	1303	 388.5485	 0.0	 367.0	 -367.0	 1.0	 229.43	 1	 733	 44.097; % NG
	1308	 0.0	 0.0	 107.0	 -107.0	 1.0	 175.8	 0	 214	 30.833; % COW
	1309	 152.6685	 0.0	 141.0	 -141.0	 1.0	 175.8	 1	 282	 23.337; % NG
	1310	 92.48925	 7.741	 89.482	 -74.0	 1.0	 175.8	 1	 147	 37.9785; % NG
	1311	 0.0	 0.0	 89.482	 -36.0	 1.0	 175.8	 0	 71	 11.924; % NG
	1313	 57.095	 0.0	 57.0	 -57.0	 1.0	 1.2	 1	 114	 0.19; % PEL
	1313	 0.0	 0.0	 340.0	 -340.0	 1.0	 8.33	 0	 679	 0.573; % COW
	1313	 40.6045	 0.0	 41.0	 -41.0	 1.0	 1.2	 1	 81	 0.209; % PEL
	1313	 25.09975	 0.0	 25.0	 -25.0	 1.0	 2.5	 1	 50	 0.1995; % PEL
	1313	 20.65375	 0.0	 21.0	 -21.0	 1.0	 2.5	 1	 41	 0.3075; % PEL
	1313	 0.0	 0.0	 98.0	 -98.0	 1.0	 8.33	 0	 195	 1.265; % NG
	1313	 0.0	 0.0	 8.0	 -8.0	 1.0	 8.33	 0	 16	 1.3695; % COW
	1313	 44.39825	 0.0	 44.0	 -44.0	 1.0	 8.33	 1	 87	 1.7965; % NG
	1313	 24.6755	 0.0	 24.0	 -24.0	 1.0	 8.33	 1	 48	 1.351; % COW
	1313	 0.0	 0.0	 40.0	 -40.0	 1.0	 8.33	 0	 80	 1.854; % PEL
	1318	 153.6995	 0.0	 143.0	 -143.0	 1.0	 200.0	 1	 285	 22.399; % NG
	1319	 205.5625	 0.0	 186.0	 -186.0	 1.0	 200.0	 1	 371	 40.125; % NG
	1320	 208.4615	 0.0	 193.0	 -193.0	 1.0	 200.0	 1	 385	 31.923; % NG
	1325	 676.889	 0.0	 629.0	 -629.0	 1.0	 934.5	 1	 1257	 96.778; % COW
	1326	 715.66725	 0.0	 620.0	 -620.0	 1.0	 934.5	 1	 1240	 191.3345; % COW
	1328	 116.1845	 0.0	 115.0	 -115.0	 1.0	 56.7	 1	 229	 3.369; % NG
	1328	 138.03975	 0.0	 136.0	 -136.0	 1.0	 56.7	 1	 271	 5.0795; % COW
	1328	 93.47925	 0.0	 89.0	 -89.0	 1.0	 56.7	 1	 178	 8.9585; % NG
	1328	 59.1125	 0.0	 55.0	 -55.0	 1.0	 56.7	 1	 110	 8.225; % PEL
	1330	 36.59175	 4.887	 43.774	 -34.0	 1.0	 86.0	 1	 68	 5.1835; % NG
	1330	 67.12975	 0.0	 62.0	 -62.0	 1.0	 86.0	 1	 124	 10.2595; % NG
	1330	 83.99925	 0.0	 76.0	 -76.0	 1.0	 86.0	 1	 152	 15.9985; % PEL
	1332	 0.0	 0.0	 2.0	 -2.0	 1.0	 1.0	 0	 4	 0.202; % PEL
	1332	 29.8315	 0.0	 30.0	 -30.0	 1.0	 2.7	 1	 59	 0.663; % PEL
	1332	 31.67875	 0.0	 32.0	 -32.0	 1.0	 3.5	 1	 63	 0.3575; % NG
	1332	 43.582	 0.0	 41.0	 -41.0	 1.0	 25.0	 1	 82	 5.164; % NG
	1336	 57.9865	 10.888	 70.776	 -49.0	 1.0	 139.05	 1	 97	 18.973; % NG
	1337	 164.29275	 0.0	 149.0	 -149.0	 1.0	 139.05	 1	 297	 31.5855; % NG
	1341	 0.0	 0.0	 169.531	 -44.384	 1.0	 363.8	 0	 0	 134.77; % NG
	1343	 150.7745	 0.0	 147.0	 -147.0	 1.0	 46.8	 1	 293	 8.549; % NG
	1345	 0.0	 0.0	 307.0	 -307.0	 1.0	 38.3	 0	 613	 2.4075; % COW
	1346	 0.0	 0.0	 19.495	 -13.0	 1.0	 38.3	 0	 26	 8.971; % NG
	1346	 0.0	 0.0	 19.495	 -5.0	 1.0	 38.3	 0	 10	 8.5915; % COW
	1346	 0.0	 0.0	 52.0	 -52.0	 1.0	 38.3	 0	 104	 6.3685; % PEL
	1348	 0.0	 0.0	 33.0	 -33.0	 1.0	 4.1	 0	 65	 0.64; % NG
	1348	 0.0	 0.0	 8.0	 -8.0	 1.0	 4.1	 0	 16	 0.242; % PEL
	1350	 23.821	 0.0	 24.0	 -24.0	 1.0	 5.1	 1	 47	 0.642; % COW
	1350	 29.9775	 0.0	 30.0	 -30.0	 1.0	 10.0	 1	 59	 0.955; % NG
	1352	 0.0	 0.0	 36.0	 -36.0	 1.0	 19.2	 0	 71	 1.716; % PEL
	1354	 0.0	 0.0	 15.0	 -15.0	 1.0	 26.6	 0	 30	 4.351; % NG
	1356	 0.0	 0.0	 17.153	 -5.0	 1.0	 33.7	 0	 9	 5.6; % PEL
	1360	 420.76825	 0.0	 379.0	 -379.0	 1.0	 408.08	 1	 758	 83.5365; % NG
	1361	 0.0	 0.0	 207.714	 -45.297	 1.0	 408.08	 0	 10	 44.635; % NG
	1362	 524.581	 0.0	 489.0	 -489.0	 1.0	 408.08	 1	 978	 71.162; % COW
	1363	 0.0	 0.0	 207.714	 -57.0	 1.0	 408.08	 0	 113	 97.532; % NG
	1364	 273.27025	 0.0	 279.6	 -279.6	 1.0	 408.08	 1	 471	 75.5405; % NG
	1365	 289.06575	 0.0	 269.0	 -269.0	 1.0	 408.08	 1	 537	 41.1315; % NG
	1370	 0.0	 0.0	 357.0	 -357.0	 1.0	 455.63	 0	 714	 69.206; % COW
	1371	 0.0	 0.0	 212.321	 -55.586	 1.0	 455.63	 0	 91	 44.052; % NG
	1372	 0.0	 0.0	 212.321	 -55.586	 1.0	 455.63	 0	 51	 105.861; % NG
	1373	 0.0	 0.0	 212.321	 -55.586	 1.0	 455.63	 0	 65	 55.65; % COW
...
];

%% generator cost data
%	2	startup	shutdown	n	c(n-1)	...	c0
mpc.gencost = [
	2	 0.0	 0.0	 3	   0.016330	  21.370000	  -2.678000; % COW
	2	 0.0	 0.0	 3	   0.012020	  21.100000	  -2.186000; % NG
	2	 0.0	 0.0	 3	   0.016560	  22.010000	  -2.770000; % NG
	2	 0.0	 0.0	 3	   0.012130	  19.750000	  -2.049000; % COW
	2	 0.0	 0.0	 3	   0.014590	  24.090000	  -2.724000; % NG
	2	 0.0	 0.0	 3	   0.019080	  19.760000	  -2.386000; % NG
	2	 0.0	 0.0	 3	   0.000000	  17.000000	  -1.619000; % NG
	2	 0.0	 0.0	 3	   0.001030	   9.129000	   0.000000; % COW
	2	 0.0	 0.0	 3	   0.001759	   8.167000	   0.000000; % COW
	2	 0.0	 0.0	 3	   0.000000	  17.390000	   0.000000; % NG
	2	 0.0	 0.0	 3	   0.000000	  14.990000	   0.000000; % PEL
	2	 0.0	 0.0	 3	   0.000000	  14.550000	   0.000000; % NG
	2	 0.0	 0.0	 3	   0.000000	  14.170000	   0.000000; % NG
	2	 0.0	 0.0	 3	   0.000000	  16.790000	   0.000000; % NG
	2	 0.0	 0.0	 3	   0.000000	  17.210000	   0.000000; % PEL
	2	 0.0	 0.0	 3	   0.026360	  20.610000	  -2.442000; % NG
	2	 0.0	 0.0	 3	   0.019850	  17.370000	  -2.014000; % NG
	2	 0.0	 0.0	 3	   0.014020	  21.620000	  -2.032000; % NG
	2	 0.0	 0.0	 3	   0.015900	  19.400000	  -2.187000; % NG
	2	 0.0	 0.0	 3	   0.019070	  19.250000	  -2.470000; % NG
	2	 0.0	 0.0	 3	   0.000000	  30.000000	   0.000000; % NG
	2	 0.0	 0.0	 3	   0.000000	  30.000000	   0.000000; % NG
	2	 0.0	 0.0	 3	   0.000000	  30.000000	   0.000000; % PEL
	2	 0.0	 0.0	 3	   0.000000	  30.000000	   0.000000; % PEL
	2	 0.0	 0.0	 3	   0.000000	  30.000000	   0.000000; % NG
	2	 0.0	 0.0	 3	   0.000000	  30.000000	   0.000000; % NG
	2	 0.0	 0.0	 3	   0.000000	  30.000000	   0.000000; % PEL
	2	 0.0	 0.0	 3	   0.000000	  30.000000	   0.000000; % NG
	2	 0.0	 0.0	 3	   0.018820	  19.240000	  -1.694000; % NG
	2	 0.0	 0.0	 3	   0.013910	  16.010000	  -1.180000; % NG
	2	 0.0	 0.0	 3	   0.010590	  18.900000	  -1.149000; % NG
	2	 0.0	 0.0	 3	   0.016170	  21.530000	  -1.659000; % NG
	2	 0.0	 0.0	 3	   0.013830	  17.440000	  -1.276000; % NG
	2	 0.0	 0.0	 3	   0.013920	  15.920000	  -1.169000; % NG
	2	 0.0	 0.0	 3	   0.001700	   8.322000	   0.000000; % COW
	2	 0.0	 0.0	 3	   0.001699	   8.325000	   0.000000; % COW
	2	 0.0	 0.0	 3	   0.000000	  17.950000	   0.000000; % NG
	2	 0.0	 0.0	 3	   0.000000	  15.700000	 -13.460000; % NG
	2	 0.0	 0.0	 3	   0.000000	  17.590000	 -15.850000; % PEL
	2	 0.0	 0.0	 3	   0.000000	  16.800000	   0.000000; % NG
	2	 0.0	 0.0	 3	   0.000000	  18.720000	   0.000000; % PEL
	2	 0.0	 0.0	 3	   0.000000	  15.600000	 -12.390000; % PEL
	2	 0.0	 0.0	 3	   0.014500	  14.870000	   0.000000; % NG
	2	 0.0	 0.0	 3	   0.011840	  18.040000	  -1.020000; % NG
	2	 0.0	 0.0	 3	   0.014490	  16.990000	   0.000000; % NG
	2	 0.0	 0.0	 3	   0.020170	  17.960000	  -1.156000; % NG
	2	 0.0	 0.0	 3	   0.017080	  16.480000	   0.000000; % NG
	2	 0.0	 0.0	 3	   0.013580	  14.240000	   0.000000; % COW
	2	 0.0	 0.0	 3	   0.020420	  25.400000	  -7.217000; % COW
	2	 0.0	 0.0	 3	   0.020650	  22.280000	  -5.772000; % COW
	2	 0.0	 0.0	 3	   0.011620	  29.890000	  -5.213000; % COW
	2	 0.0	 0.0	 3	   0.026980	  23.340000	  -6.146000; % COW
	2	 0.0	 0.0	 3	   0.020780	  17.190000	  -4.678000; % COW
	2	 0.0	 0.0	 3	   0.019060	  26.830000	  -6.793000; % COW
	2	 0.0	 0.0	 3	   0.000000	  30.000000	   0.000000; % NG
	2	 0.0	 0.0	 3	   0.000000	  30.000000	   0.000000; % NG
	2	 0.0	 0.0	 3	   0.000000	  30.000000	   0.000000; % NG
	2	 0.0	 0.0	 3	   0.000000	  30.000000	   0.000000; % NG
	2	 0.0	 0.0	 3	   0.000000	  30.000000	   0.000000; % COW
	2	 0.0	 0.0	 3	   0.000000	  30.000000	   0.000000; % COW
	2	 0.0	 0.0	 3	   0.000000	  30.000000	   0.000000; % PEL
	2	 0.0	 0.0	 3	   0.000000	  30.000000	   0.000000; % PEL
	2	 0.0	 0.0	 3	   0.000000	  30.000000	   0.000000; % PEL
	2	 0.0	 0.0	 3	   0.000000	  30.000000	   0.000000; % PEL
	2	 0.0	 0.0	 3	   0.000000	  30.000000	   0.000000; % NG
	2	 0.0	 0.0	 3	   0.000000	  30.000000	   0.000000; % PEL
	2	 0.0	 0.0	 3	   0.018640	  19.460000	  -1.724000; % NG
	2	 0.0	 0.0	 3	   0.020250	  21.280000	  -2.006000; % NG
	2	 0.0	 0.0	 3	   0.000000	  15.850000	   0.000000; % NG
	2	 0.0	 0.0	 3	   0.000000	  14.680000	   0.000000; % PEL
	2	 0.0	 0.0	 3	   0.012640	  21.190000	  -2.482000; % COW
	2	 0.0	 0.0	 3	   0.023040	  18.720000	  -2.847000; % COW
	2	 0.0	 0.0	 3	   0.012490	  20.530000	  -2.495000; % NG
	2	 0.0	 0.0	 3	   0.019290	  17.330000	  -2.237000; % NG
	2	 0.0	 0.0	 3	   0.000000	  30.000000	   0.000000; % PEL
	2	 0.0	 0.0	 3	   0.000000	  30.000000	   0.000000; % NG
	2	 0.0	 0.0	 3	   0.000000	  30.000000	   0.000000; % PEL
	2	 0.0	 0.0	 3	   0.000000	  30.000000	   0.000000; % PEL
	2	 0.0	 0.0	 3	   0.000000	  30.000000	   0.000000; % NG
	2	 0.0	 0.0	 3	   0.000000	  30.000000	   0.000000; % PEL
	2	 0.0	 0.0	 3	   0.000000	  24.770000	   0.000000; % COW
	2	 0.0	 0.0	 3	   0.000000	  23.890000	   0.000000; % NG
	2	 0.0	 0.0	 3	   0.023410	  27.190000	  -1.626000; % NG
	2	 0.0	 0.0	 3	   0.019040	  27.540000	  -1.546000; % COW
	2	 0.0	 0.0	 3	   0.026120	  28.970000	  -1.581000; % NG
	2	 0.0	 0.0	 3	   0.000000	  27.490000	 -54.620000; % NG
	2	 0.0	 0.0	 3	   0.000000	  28.490000	 -40.200000; % NG
	2	 0.0	 0.0	 3	   0.000000	  30.000000	   0.000000; % NG
	2	 0.0	 0.0	 3	   0.000000	  30.000000	   0.000000; % NG
	2	 0.0	 0.0	 3	   0.000000	  30.000000	   0.000000; % NG
	2	 0.0	 0.0	 3	   0.000000	  30.000000	   0.000000; % NG
	2	 0.0	 0.0	 3	   0.000000	  30.000000	   0.000000; % NG
	2	 0.0	 0.0	 3	   0.000000	  30.000000	   0.000000; % NG
	2	 0.0	 0.0	 3	   0.027540	  26.150000	  -2.426000; % NG
	2	 0.0	 0.0	 3	   0.033750	  29.900000	  -3.238000; % NG
	2	 0.0	 0.0	 3	   0.030040	  32.670000	  -3.029000; % NG
	2	 0.0	 0.0	 3	   0.028100	  29.570000	  -3.073000; % NG
	2	 0.0	 0.0	 3	   0.029070	  33.100000	  -3.287000; % NG
	2	 0.0	 0.0	 3	   0.000000	  26.420000	   0.000000; % NG
	2	 0.0	 0.0	 3	   0.000000	  23.670000	   0.000000; % NG
	2	 0.0	 0.0	 3	   0.027860	  27.390000	  -2.660000; % COW
	2	 0.0	 0.0	 3	   0.034250	  26.960000	  -2.562000; % NG
	2	 0.0	 0.0	 3	   0.025260	  34.170000	  -3.145000; % COW
	2	 0.0	 0.0	 3	   0.029600	  27.690000	  -2.616000; % NG
	2	 0.0	 0.0	 3	   0.000000	  27.640000	   0.000000; % NG
	2	 0.0	 0.0	 3	   0.030600	  27.070000	  -1.764000; % NG
	2	 0.0	 0.0	 3	   0.034700	  31.910000	  -2.326000; % COW
	2	 0.0	 0.0	 3	   0.026410	  28.690000	  -2.552000; % NG
	2	 0.0	 0.0	 3	   0.026800	  30.990000	  -4.106000; % COW
	2	 0.0	 0.0	 3	   0.024290	  32.580000	  -4.626000; % COW
	2	 0.0	 0.0	 3	   0.031500	  30.790000	  -4.019000; % NG
	2	 0.0	 0.0	 3	   0.030240	  30.230000	  -4.252000; % NG
	2	 0.0	 0.0	 3	   0.033730	  29.460000	  -4.014000; % COW
	2	 0.0	 0.0	 3	   0.027190	  29.530000	  -4.077000; % NG
	2	 0.0	 0.0	 3	   0.000000	  24.590000	   0.000000; % PEL
	2	 0.0	 0.0	 3	   0.064010	  39.890000	 -13.580000; % COW
	2	 0.0	 0.0	 3	   0.075690	  39.520000	 -13.630000; % NG
	2	 0.0	 0.0	 3	   0.018590	  30.360000	  -2.086000; % NG
	2	 0.0	 0.0	 3	   0.019940	  29.900000	  -2.177000; % NG
	2	 0.0	 0.0	 3	   0.026570	  25.400000	  -2.084000; % NG
	2	 0.0	 0.0	 3	   0.026700	  30.430000	  -2.712000; % NG
	2	 0.0	 0.0	 3	   0.000000	  27.950000	   0.000000; % NG
	2	 0.0	 0.0	 3	   0.000000	  24.810000	  -9.402000; % NG
	2	 0.0	 0.0	 3	   0.000000	  26.840000	  -9.579000; % NG
	2	 0.0	 0.0	 3	   0.029000	  26.400000	  -2.688000; % NG
	2	 0.0	 0.0	 3	   0.023990	  29.870000	  -3.309000; % COW
	2	 0.0	 0.0	 3	   0.021510	  32.620000	  -3.169000; % NG
	2	 0.0	 0.0	 3	   0.018140	  33.130000	  -2.925000; % NG
	2	 0.0	 0.0	 3	   0.029630	  28.730000	  -3.319000; % NG
	2	 0.0	 0.0	 3	   0.019670	  35.420000	  -2.741000; % NG
	2	 0.0	 0.0	 3	   0.019490	  29.910000	  -2.624000; % COW
	2	 0.0	 0.0	 3	   0.028880	  34.360000	  -3.224000; % NG
	2	 0.0	 0.0	 3	   0.025300	  36.570000	  -4.649000; % NG
	2	 0.0	 0.0	 3	   0.021940	  39.920000	  -4.583000; % NG
	2	 0.0	 0.0	 3	   0.022130	  31.190000	  -3.989000; % COW
	2	 0.0	 0.0	 3	   0.021080	  33.810000	  -4.054000; % NG
	2	 0.0	 0.0	 3	   0.000000	  24.640000	   0.000000; % PEL
	2	 0.0	 0.0	 3	   0.000000	  27.900000	   0.000000; % NG
	2	 0.0	 0.0	 3	   0.000000	  28.820000	   0.000000; % NG
	2	 0.0	 0.0	 3	   0.000000	  28.220000	 -20.920000; % NG
	2	 0.0	 0.0	 3	   0.000000	  29.390000	 -33.230000; % PEL
	2	 0.0	 0.0	 3	   0.000000	  22.690000	   0.000000; % NG
	2	 0.0	 0.0	 3	   0.035560	  30.220000	  -3.324000; % NG
	2	 0.0	 0.0	 3	   0.034520	  29.800000	  -3.435000; % NG
	2	 0.0	 0.0	 3	   0.022020	  28.880000	  -2.864000; % NG
	2	 0.0	 0.0	 3	   0.022020	  28.750000	  -2.089000; % COW
	2	 0.0	 0.0	 3	   0.028370	  27.650000	  -2.337000; % NG
	2	 0.0	 0.0	 3	   0.020730	  30.250000	  -2.185000; % NG
	2	 0.0	 0.0	 3	   0.030270	  26.810000	  -1.859000; % NG
	2	 0.0	 0.0	 3	   0.000000	  30.000000	   0.000000; % PEL
	2	 0.0	 0.0	 3	   0.000000	  30.000000	   0.000000; % COW
	2	 0.0	 0.0	 3	   0.000000	  30.000000	   0.000000; % PEL
	2	 0.0	 0.0	 3	   0.000000	  30.000000	   0.000000; % PEL
	2	 0.0	 0.0	 3	   0.000000	  30.000000	   0.000000; % PEL
	2	 0.0	 0.0	 3	   0.000000	  30.000000	   0.000000; % NG
	2	 0.0	 0.0	 3	   0.000000	  30.000000	   0.000000; % COW
	2	 0.0	 0.0	 3	   0.000000	  30.000000	   0.000000; % NG
	2	 0.0	 0.0	 3	   0.000000	  30.000000	   0.000000; % COW
	2	 0.0	 0.0	 3	   0.000000	  30.000000	   0.000000; % PEL
	2	 0.0	 0.0	 3	   0.034270	  27.540000	  -2.959000; % NG
	2	 0.0	 0.0	 3	   0.022210	  30.390000	  -2.577000; % NG
	2	 0.0	 0.0	 3	   0.025580	  29.290000	  -2.630000; % NG
	2	 0.0	 0.0	 3	   0.000000	  30.000000	   0.000000; % COW
	2	 0.0	 0.0	 3	   0.000000	  30.000000	   0.000000; % COW
	2	 0.0	 0.0	 3	   0.000000	  30.000000	   0.000000; % NG
	2	 0.0	 0.0	 3	   0.000000	  30.000000	   0.000000; % COW
	2	 0.0	 0.0	 3	   0.000000	  30.000000	   0.000000; % NG
	2	 0.0	 0.0	 3	   0.000000	  30.000000	   0.000000; % PEL
	2	 0.0	 0.0	 3	   0.000000	  28.390000	 -33.640000; % NG
	2	 0.0	 0.0	 3	   0.000000	  28.910000	 -49.180000; % NG
	2	 0.0	 0.0	 3	   0.000000	  29.590000	 -53.360000; % PEL
	2	 0.0	 0.0	 3	   0.000000	   0.000000	   0.000000; % PEL
	2	 0.0	 0.0	 3	   0.000000	   0.000000	   0.000000; % PEL
	2	 0.0	 0.0	 3	   0.000000	   0.000000	   0.000000; % NG
	2	 0.0	 0.0	 3	   0.000000	   0.000000	   0.000000; % NG
	2	 0.0	 0.0	 3	   0.020750	  26.750000	  -1.370000; % NG
	2	 0.0	 0.0	 3	   0.016860	  30.820000	  -1.447000; % NG
	2	 0.0	 0.0	 3	   0.057680	  46.130000	 -11.660000; % NG
	2	 0.0	 0.0	 3	   0.000000	  25.330000	 -12.060000; % NG
	2	 0.0	 0.0	 3	   0.000000	  25.660000	  -4.680000; % COW
	2	 0.0	 0.0	 3	   0.000000	  24.700000	   0.000000; % NG
	2	 0.0	 0.0	 3	   0.000000	  26.630000	   0.000000; % COW
	2	 0.0	 0.0	 3	   0.000000	  27.190000	  -6.785000; % PEL
	2	 0.0	 0.0	 3	   0.000000	  24.980000	   0.000000; % NG
	2	 0.0	 0.0	 3	   0.000000	  26.850000	   0.000000; % PEL
	2	 0.0	 0.0	 3	   0.000000	   0.000000	   0.000000; % COW
	2	 0.0	 0.0	 3	   0.000000	   0.000000	   0.000000; % NG
	2	 0.0	 0.0	 3	   0.000000	  30.000000	   0.000000; % PEL
	2	 0.0	 0.0	 3	   0.000000	  24.290000	  -3.684000; % NG
	2	 0.0	 0.0	 3	   0.000000	  27.130000	  -6.071000; % PEL
	2	 0.0	 0.0	 3	   0.026950	  39.130000	  -6.398000; % NG
	2	 0.0	 0.0	 3	   0.039770	  30.070000	  -5.243000; % NG
	2	 0.0	 0.0	 3	   0.028930	  34.570000	  -6.352000; % COW
	2	 0.0	 0.0	 3	   0.023620	  40.790000	  -6.121000; % NG
	2	 0.0	 0.0	 3	   0.027950	  37.180000	  -6.334000; % NG
	2	 0.0	 0.0	 3	   0.031930	  29.680000	  -5.362000; % NG
	2	 0.0	 0.0	 3	   0.076050	  51.290000	 -17.350000; % COW
	2	 0.0	 0.0	 3	   0.082770	  40.290000	 -15.230000; % NG
	2	 0.0	 0.0	 3	   0.071450	  38.330000	 -14.300000; % NG
	2	 0.0	 0.0	 3	   0.067630	  41.080000	 -13.860000; % COW
...
];

%% branch data
%	fbus	tbus	r	x	b	rateA	rateB	rateC	ratio	angle	status	angmin	angmax
mpc.branch = [
	1	 3	 0.00023182	 0.00102493	 0.0	 99999.0	 99999.0	 99999.0	 0.0	 0.0	 1	 -30.0	 30.0;
	1	 28	 0.00413857	 0.0270728	 0.00746341	 219.62	 219.62	 219.62	 0.0	 0.0	 1	 -30.0	 30.0;
	1	 174	 0.00529188	 0.0209981	 0.0166533	 241.75	 241.75	 241.75	 0.0	 0.0	 1	 -30.0	 30.0;
	1	 174	 0.00529188	 0.0209981	 0.0166533	 241.75	 241.75	 241.75	 0.0	 0.0	 1	 -30.0	 30.0;
	1	 247	 0.00712647	 0.0357571	 0.00985329	 265.68	 265.68	 265.68	 0.0	 0.0	 1	 -30.0	 30.0;
	1	 248	 0.00369663	 0.021138	 0.0100986	 243.83	 243.83	 243.83	 0.0	 0.0	 1	 -30.0	 30.0;
	2	 23	 0.0104592	 0.0332497	 0.00196885	 79.04	 79.04	 79.04	 0.0	 0.0	 1	 -30.0	 30.0;
	2	 23	 0.0104592	 0.0332497	 0.00196885	 79.04	 79.04	 79.04	 0.0	 0.0	 1	 -30.0	 30.0;
	2	 23	 0.0104592	 0.0332497	 0.00196885	 79.04	 79.04	 79.04	 0.0	 0.0	 0	 -30.0	 30.0;
	4	 128	 0.0132902	 0.0268195	 0.00578327	 64.44	 64.44	 64.44	 0.0	 0.0	 1	 -30.0	 30.0;
	4	 164	 0.0219322	 0.0591199	 0.0121884	 52.0	 52.0	 52.0	 0.0	 0.0	 1	 -30.0	 30.0;
	5	 4	 0.0108814	 0.0309317	 0.0010461	 80.95	 80.95	 80.95	 0.0	 0.0	 1	 -30.0	 30.0;
	5	 10	 0.00934009	 0.0255526	 0.00609131	 108.59	 108.59	 108.59	 0.0	 0.0	 1	 -30.0	 30.0;
	6	 13	 0.0134592	 0.0297145	 0.0015211	 65.19	 65.19	 65.19	 0.0	 0.0	 1	 -30.0	 30.0;
	6	 13	 0.0134592	 0.0297145	 0.0015211	 65.19	 65.19	 65.19	 0.0	 0.0	 1	 -30.0	 30.0;
	6	 43	 0.0177663	 0.0495402	 0.00459009	 81.61	 81.61	 81.61	 0.0	 0.0	 1	 -30.0	 30.0;
	6	 43	 0.0177663	 0.0495402	 0.00459009	 81.61	 81.61	 81.61	 0.0	 0.0	 1	 -30.0	 30.0;
	6	 43	 0.0177663	 0.0495402	 0.00459009	 81.61	 81.61	 81.61	 0.0	 0.0	 1	 -30.0	 30.0;
	7	 86	 0.00434889	 0.0146316	 0.0344193	 256.34	 256.34	 256.34	 0.0	 0.0	 1	 -30.0	 30.0;
	7	 86	 0.00434889	 0.0146316	 0.0344193	 256.34	 256.34	 256.34	 0.0	 0.0	 1	 -30.0	 30.0;
	7	 86	 0.00434889	 0.0146316	 0.0344193	 256.34	 256.34	 256.34	 0.0	 0.0	 1	 -30.0	 30.0;
	8	 214	 0.0177395	 0.0479832	 0.00111804	 105.16	 105.16	 105.16	 0.0	 0.0	 1	 -30.0	 30.0;
	9	 7	 0.00214021	 0.0150334	 0.0121318	 319.17	 319.17	 319.17	 0.0	 0.0	 1	 -30.0	 30.0;
	9	 11	 0.000211449	 0.00119004	 0.0	 99999.0	 99999.0	 99999.0	 0.0	 0.0	 1	 -30.0	 30.0;
	9	 208	 0.00444784	 0.0271527	 0.0302679	 318.16	 318.16	 318.16	 0.0	 0.0	 0	 -30.0	 30.0;
	10	 6	 0.0170262	 0.0421583	 0.00119287	 86.29	 86.29	 86.29	 0.0	 0.0	 1	 -30.0	 30.0;
	12	 14	 0.000238768	 0.00116074	 0.0	 99999.0	 99999.0	 99999.0	 0.0	 0.0	 1	 -30.0	 30.0;
	13	 8	 0.0165507	 0.0426667	 0.00366785	 133.11	 133.11	 133.11	 0.0	 0.0	 1	 -30.0	 30.0;
	13	 17	 0.0320514	 0.0754904	 0.00235805	 82.53	 82.53	 82.53	 0.0	 0.0	 1	 -30.0	 30.0;
	13	 187	 0.0069238	 0.0171061	 0.00801142	 79.4	 79.4	 79.4	 0.0	 0.0	 1	 -30.0	 30.0;
	14	 9	 0.00364564	 0.0218068	 0.0060302	 172.04	 172.04	 172.04	 0.0	 0.0	 1	 -30.0	 30.0;
	15	 151	 0.00171507	 0.0115251	 0.0086048	 286.2	 286.2	 286.2	 0.0	 0.0	 1	 -30.0	 30.0;
	15	 211	 0.00192474	 0.0105067	 0.00425216	 280.32	 280.32	 280.32	 0.0	 0.0	 1	 -30.0	 30.0;
	15	 232	 0.0046	 0.029799	 0.0212613	 280.54	 280.54	 280.54	 0.0	 0.0	 1	 -30.0	 30.0;
	15	 232	 0.0046	 0.029799	 0.0212613	 321.13	 321.13	 321.13	 0.0	 0.0	 1	 -30.0	 30.0;
	16	 21	 0.011558	 0.0357297	 0.00234347	 105.45	 105.45	 105.45	 0.0	 0.0	 1	 -30.0	 30.0;
	16	 35	 0.00813416	 0.0195601	 0.00218755	 92.42	 92.42	 92.42	 0.0	 0.0	 1	 -30.0	 30.0;
	16	 37	 0.0129734	 0.0401236	 0.000641011	 73.63	 73.63	 73.63	 0.0	 0.0	 1	 -30.0	 30.0;
	17	 43	 0.0167472	 0.042412	 0.00168994	 99.4	 99.4	 99.4	 0.0	 0.0	 1	 -30.0	 30.0;
	18	 19	 0.000249168	 0.00107953	 0.0	 99999.0	 99999.0	 99999.0	 0.0	 0.0	 1	 -30.0	 30.0;
	18	 187	 0.018127	 0.0528191	 0.00213896	 73.01	 73.01	 73.01	 0.0	 0.0	 1	 -30.0	 30.0;
	18	 187	 0.018127	 0.0528191	 0.00213896	 82.62	 82.62	 82.62	 0.0	 0.0	 1	 -30.0	 30.0;
	20	 22	 0.000219564	 0.00118149	 0.0	 99999.0	 99999.0	 99999.0	 0.0	 0.0	 1	 -30.0	 30.0;
	21	 38	 0.0228097	 0.052298	 0.00200842	 68.0	 68.0	 68.0	 0.0	 0.0	 1	 -30.0	 30.0;
	21	 38	 0.0228097	 0.052298	 0.00200842	 68.0	 68.0	 68.0	 0.0	 0.0	 1	 -30.0	 30.0;
	22	 34	 0.00459707	 0.0237513	 0.0317594	 215.75	 215.75	 215.75	 0.0	 0.0	 1	 -30.0	 30.0;
	22	 86	 0.0024419	 0.0144345	 0.00822082	 267.98	 267.98	 267.98	 0.0	 0.0	 1	 -30.0	 30.0;
	22	 215	 0.00318566	 0.01486	 0.0134473	 258.04	 258.04	 258.04	 0.0	 0.0	 1	 -30.0	 30.0;
	22	 215	 0.00318566	 0.01486	 0.0134473	 258.04	 258.04	 258.04	 0.0	 0.0	 1	 -30.0	 30.0;
	22	 215	 0.00318566	 0.01486	 0.0134473	 258.04	 258.04	 258.04	 0.0	 0.0	 1	 -30.0	 30.0;
	22	 548	 0.00620426	 0.0329366	 0.0176561	 258.61	 258.61	 258.61	 0.0	 0.0	 1	 -30.0	 30.0;
	22	 548	 0.00620426	 0.0329366	 0.0176561	 258.61	 258.61	 258.61	 0.0	 0.0	 1	 -30.0	 30.0;
	22	 548	 0.00620426	 0.0329366	 0.0176561	 258.61	 258.61	 258.61	 0.0	 0.0	 1	 -30.0	 30.0;
	23	 177	 0.0167668	 0.0454559	 0.00130041	 75.07	 75.07	 75.07	 0.0	 0.0	 1	 -30.0	 30.0;
	24	 16	 0.0118471	 0.0318563	 0.00208615	 99.33	 99.33	 99.33	 0.0	 0.0	 1	 -30.0	 30.0;
	24	 25	 0.000264528	 0.00110156	 0.0	 99999.0	 99999.0	 99999.0	 0.0	 0.0	 1	 -30.0	 30.0;
	24	 41	 0.015854	 0.041633	 0.00114618	 67.07	 67.07	 67.07	 0.0	 0.0	 1	 -30.0	 30.0;
	24	 41	 0.015854	 0.041633	 0.00114618	 67.07	 67.07	 67.07	 0.0	 0.0	 1	 -30.0	 30.0;
	26	 28	 0.000288654	 0.00112215	 0.0	 99999.0	 99999.0	 99999.0	 0.0	 0.0	 1	 -30.0	 30.0;
	27	 23	 0.0127749	 0.0299585	 0.00159547	 59.21	 59.21	 59.21	 0.0	 0.0	 1	 -30.0	 30.0;
	27	 177	 0.0148095	 0.0384174	 0.00194579	 76.41	 76.41	 76.41	 0.0	 0.0	 1	 -30.0	 30.0;
	27	 219	 0.0146725	 0.0356523	 0.000881023	 55.36	 55.36	 55.36	 0.0	 0.0	 1	 -30.0	 30.0;
	28	 165	 0.00356549	 0.0232361	 0.00589297	 350.0	 350.0	 350.0	 0.0	 0.0	 1	 -30.0	 30.0;
	28	 174	 0.00146485	 0.0101278	 0.00457715	 241.31	 241.31	 241.31	 0.0	 0.0	 1	 -30.0	 30.0;
	28	 555	 0.00683845	 0.0343749	 0.0208829	 322.49	 322.49	 322.49	 0.0	 0.0	 0	 -30.0	 30.0;
	29	 252	 0.0190813	 0.056663	 0.00108459	 60.63	 60.63	 60.63	 0.0	 0.0	 1	 -30.0	 30.0;
	29	 267	 0.0244295	 0.0641456	 0.00258533	 81.86	 81.86	 81.86	 0.0	 0.0	 1	 -30.0	 30.0;
	29	 557	 0.00231061	 0.00635728	 0.000323514	 96.22	 96.22	 96.22	 0.0	 0.0	 1	 -30.0	 30.0;
	29	 557	 0.00231061	 0.00635728	 0.000323514	 109.17	 109.17	 109.17	 0.0	 0.0	 1	 -30.0	 30.0;
	30	 31	 0.0017784	 0.0116988	 0.00650237	 191.0	 191.0	 191.0	 0.0	 0.0	 1	 -30.0	 30.0;
	31	 33	 0.000274453	 0.00119906	 0.0	 99999.0	 99999.0	 99999.0	 0.0	 0.0	 1	 -30.0	 30.0;
	31	 42	 0.00623491	 0.0279952	 0.00721758	 229.38	 229.38	 229.38	 0.0	 0.0	 1	 -30.0	 30.0;
	32	 17	 0.0264094	 0.065065	 0.0020865	 68.42	 68.42	 68.42	 0.0	 0.0	 1	 -30.0	 30.0;
	32	 17	 0.0264094	 0.065065	 0.0020865	 68.42	 68.42	 68.42	 0.0	 0.0	 1	 -30.0	 30.0;
	32	 283	 0.0142241	 0.0432463	 0.00220303	 67.66	 67.66	 67.66	 0.0	 0.0	 1	 -30.0	 30.0;
	32	 283	 0.0142241	 0.0432463	 0.00220303	 67.66	 67.66	 67.66	 0.0	 0.0	 1	 -30.0	 30.0;
	34	 31	 0.003786	 0.0214023	 0.00785309	 232.2	 232.2	 232.2	 0.0	 0.0	 1	 -30.0	 30.0;
	34	 31	 0.003786	 0.0214023	 0.00785309	 232.2	 232.2	 232.2	 0.0	 0.0	 1	 -30.0	 30.0;
	34	 39	 0.00416941	 0.0265708	 0.00900656	 241.19	 241.19	 241.19	 0.0	 0.0	 1	 -30.0	 30.0;
	34	 39	 0.00416941	 0.0265708	 0.00900656	 241.19	 241.19	 241.19	 0.0	 0.0	 1	 -30.0	 30.0;
	34	 564	 0.00581665	 0.0316411	 0.00756963	 215.42	 215.42	 215.42	 0.0	 0.0	 1	 -30.0	 30.0;
	35	 238	 0.0300367	 0.0904545	 0.00848998	 62.8	 62.8	 62.8	 0.0	 0.0	 1	 -30.0	 30.0;
	35	 557	 0.0312946	 0.0706114	 0.00282773	 76.09	 76.09	 76.09	 0.0	 0.0	 1	 -30.0	 30.0;
	35	 557	 0.0312946	 0.0706114	 0.00282773	 76.09	 76.09	 76.09	 0.0	 0.0	 1	 -30.0	 30.0;
	35	 557	 0.0312946	 0.0706114	 0.00282773	 76.09	 76.09	 76.09	 0.0	 0.0	 1	 -30.0	 30.0;
	36	 35	 0.0265135	 0.047453	 0.00141328	 68.8	 68.8	 68.8	 0.0	 0.0	 1	 -30.0	 30.0;
	36	 35	 0.0265135	 0.047453	 0.00141328	 68.8	 68.8	 68.8	 0.0	 0.0	 1	 -30.0	 30.0;
	36	 245	 0.0293616	 0.0673862	 0.0011626	 49.63	 49.63	 49.63	 0.0	 0.0	 1	 -30.0	 30.0;
	36	 249	 0.00801014	 0.0261499	 0.00092202	 75.41	 75.41	 75.41	 0.0	 0.0	 1	 -30.0	 30.0;
	36	 249	 0.00801014	 0.0261499	 0.00092202	 75.41	 75.41	 75.41	 0.0	 0.0	 1	 -30.0	 30.0;
	36	 249	 0.00801014	 0.0261499	 0.00092202	 75.41	 75.41	 75.41	 0.0	 0.0	 1	 -30.0	 30.0;
	36	 557	 0.0164183	 0.0420729	 0.0024045	 101.25	 101.25	 101.25	 0.0	 0.0	 1	 -30.0	 30.0;
	37	 21	 0.0161314	 0.0299526	 0.00131014	 73.06	 73.06	 73.06	 0.0	 0.0	 1	 -30.0	 30.0;
	37	 35	 0.0126768	 0.0268139	 0.00271526	 77.95	 77.95	 77.95	 0.0	 0.0	 1	 -30.0	 30.0;
	37	 35	 0.0126768	 0.0268139	 0.00271526	 77.95	 77.95	 77.95	 0.0	 0.0	 1	 -30.0	 30.0;
	37	 35	 0.0126768	 0.0268139	 0.00271526	 77.95	 77.95	 77.95	 0.0	 0.0	 1	 -30.0	 30.0;
	37	 38	 0.0187055	 0.0608938	 0.00196692	 68.2	 68.2	 68.2	 0.0	 0.0	 1	 -30.0	 30.0;
	37	 38	 0.0187055	 0.0608938	 0.00196692	 68.2	 68.2	 68.2	 0.0	 0.0	 1	 -30.0	 30.0;
	37	 87	 0.0221178	 0.0564016	 0.00139673	 86.12	 86.12	 86.12	 0.0	 0.0	 1	 -30.0	 30.0;
	38	 173	 0.0177711	 0.0570116	 0.00116236	 92.96	 92.96	 92.96	 0.0	 0.0	 1	 -30.0	 30.0;
	40	 263	 0.0271487	 0.0714019	 0.00446768	 55.15	 55.15	 55.15	 0.0	 0.0	 1	 -30.0	 30.0;
	40	 276	 0.0226872	 0.0486309	 0.000835191	 72.1	 72.1	 72.1	 0.0	 0.0	 1	 -30.0	 30.0;
	40	 276	 0.0226872	 0.0486309	 0.000835191	 72.1	 72.1	 72.1	 0.0	 0.0	 1	 -30.0	 30.0;
	42	 14	 0.00495081	 0.0249773	 0.0106939	 198.72	 198.72	 198.72	 0.0	 0.0	 1	 -30.0	 30.0;
	42	 44	 0.000209978	 0.00108899	 0.0	 99999.0	 99999.0	 99999.0	 0.0	 0.0	 1	 -30.0	 30.0;
	43	 46	 0.0241647	 0.0448606	 0.00129086	 89.95	 89.95	 89.95	 0.0	 0.0	 1	 -30.0	 30.0;
	45	 46	 0.0251788	 0.0603475	 0.00162961	 107.1	 107.1	 107.1	 0.0	 0.0	 1	 -30.0	 30.0;
	45	 275	 0.0163836	 0.035907	 0.00183584	 66.64	 66.64	 66.64	 0.0	 0.0	 1	 -30.0	 30.0;
	46	 209	 0.0238416	 0.0619123	 0.0025303	 76.82	 76.82	 76.82	 0.0	 0.0	 1	 -30.0	 30.0;
	47	 50	 0.000237887	 0.00109477	 0.0	 99999.0	 99999.0	 99999.0	 0.0	 0.0	 1	 -30.0	 30.0;
	47	 524	 0.000539494	 0.00584139	 0.118909	 1062.02	 1062.02	 1062.02	 0.0	 0.0	 1	 -30.0	 30.0;
	48	 73	 0.0147435	 0.0749894	 0.0160216	 226.94	 226.94	 226.94	 0.0	 0.0	 1	 -30.0	 30.0;
	48	 534	 0.00216759	 0.0137543	 0.0523514	 269.8	 269.8	 269.8	 0.0	 0.0	 1	 -30.0	 30.0;
	48	 534	 0.00216759	 0.0137543	 0.0523514	 269.8	 269.8	 269.8	 0.0	 0.0	 1	 -30.0	 30.0;
	48	 534	 0.00216759	 0.0137543	 0.0523514	 269.8	 269.8	 269.8	 0.0	 0.0	 1	 -30.0	 30.0;
	49	 60	 0.0218319	 0.051633	 0.00357013	 71.51	 71.51	 71.51	 0.0	 0.0	 1	 -30.0	 30.0;
	51	 61	 0.0394089	 0.115713	 0.0202389	 110.0	 110.0	 110.0	 0.0	 0.0	 1	 -30.0	 30.0;
	51	 200	 0.0312098	 0.0713229	 0.00237936	 112.35	 112.35	 112.35	 0.0	 0.0	 1	 -30.0	 30.0;
	52	 54	 0.000204513	 0.00101533	 0.0	 99999.0	 99999.0	 99999.0	 0.0	 0.0	 1	 -30.0	 30.0;
	52	 159	 0.000268521	 0.00355215	 0.0808721	 1160.4	 1160.4	 1160.4	 0.0	 0.0	 1	 -30.0	 30.0;
	53	 158	 0.00438862	 0.024717	 0.00913984	 247.5	 247.5	 247.5	 0.0	 0.0	 1	 -30.0	 30.0;
	53	 193	 0.00421062	 0.0273134	 0.0266542	 259.13	 259.13	 259.13	 0.0	 0.0	 1	 -30.0	 30.0;
	53	 193	 0.00421062	 0.0273134	 0.0266542	 259.13	 259.13	 259.13	 0.0	 0.0	 1	 -30.0	 30.0;
	53	 193	 0.00421062	 0.0273134	 0.0266542	 259.13	 259.13	 259.13	 0.0	 0.0	 1	 -30.0	 30.0;
	53	 521	 0.00640328	 0.0509321	 0.00899089	 295.34	 295.34	 295.34	 0.0	 0.0	 1	 -30.0	 30.0;
	53	 521	 0.00640328	 0.0509321	 0.00899089	 295.34	 295.34	 295.34	 0.0	 0.0	 1	 -30.0	 30.0;
	55	 48	 0.0054273	 0.0328757	 0.0133538	 200.97	 200.97	 200.97	 0.0	 0.0	 1	 -30.0	 30.0;
	55	 53	 0.00501826	 0.0245394	 0.0149817	 287.21	 287.21	 287.21	 0.0	 0.0	 1	 -30.0	 30.0;
	55	 53	 0.00501826	 0.0245394	 0.0149817	 287.21	 287.21	 287.21	 0.0	 0.0	 1	 -30.0	 30.0;
	55	 53	 0.00501826	 0.0245394	 0.0149817	 287.21	 287.21	 287.21	 0.0	 0.0	 1	 -30.0	 30.0;
	55	 57	 0.000297933	 0.00100615	 0.0	 99999.0	 99999.0	 99999.0	 0.0	 0.0	 1	 -30.0	 30.0;
	55	 521	 0.0060725	 0.0302758	 0.0132185	 226.91	 226.91	 226.91	 0.0	 0.0	 1	 -30.0	 30.0;
	55	 534	 0.00415165	 0.0209214	 0.0199132	 278.07	 278.07	 278.07	 0.0	 0.0	 1	 -30.0	 30.0;
	55	 534	 0.00415165	 0.0209214	 0.0199132	 278.07	 278.07	 278.07	 0.0	 0.0	 1	 -30.0	 30.0;
	55	 534	 0.00415165	 0.0209214	 0.0199132	 278.07	 278.07	 278.07	 0.0	 0.0	 1	 -30.0	 30.0;
	55	 538	 0.0124503	 0.0306121	 0.0100872	 241.11	 241.11	 241.11	 0.0	 0.0	 1	 -30.0	 30.0;
	55	 538	 0.0124503	 0.0306121	 0.0100872	 241.11	 241.11	 241.11	 0.0	 0.0	 1	 -30.0	 30.0;
	58	 56	 0.0232941	 0.04945	 0.00381086	 81.24	 81.24	 81.24	 0.0	 0.0	 1	 -30.0	 30.0;
	58	 56	 0.0232941	 0.04945	 0.00381086	 81.24	 81.24	 81.24	 0.0	 0.0	 1	 -30.0	 30.0;
	58	 56	 0.0232941	 0.04945	 0.00381086	 81.24	 81.24	 81.24	 0.0	 0.0	 1	 -30.0	 30.0;
	59	 528	 0.0218772	 0.0556881	 0.00172262	 73.29	 73.29	 73.29	 0.0	 0.0	 1	 -30.0	 30.0;
	59	 528	 0.0218772	 0.0556881	 0.00172262	 80.37	 80.37	 80.37	 0.0	 0.0	 1	 -30.0	 30.0;
	60	 59	 0.0260598	 0.0575497	 0.00437377	 65.99	 65.99	 65.99	 0.0	 0.0	 1	 -30.0	 30.0;
	60	 59	 0.0260598	 0.0575497	 0.00437377	 65.99	 65.99	 65.99	 0.0	 0.0	 1	 -30.0	 30.0;
	60	 66	 0.0716723	 0.182181	 0.0051759	 70.21	 70.21	 70.21	 0.0	 0.0	 1	 -30.0	 30.0;
	63	 65	 0.000239799	 0.0010442	 0.0	 99999.0	 99999.0	 99999.0	 0.0	 0.0	 1	 -30.0	 30.0;
	63	 73	 0.00899317	 0.0441317	 0.021161	 204.65	 204.65	 204.65	 0.0	 0.0	 1	 -30.0	 30.0;
	64	 61	 0.0247274	 0.0504625	 0.00389364	 69.75	 69.75	 69.75	 0.0	 0.0	 1	 -30.0	 30.0;
	64	 62	 0.0185909	 0.0516831	 0.00336356	 49.99	 49.99	 49.99	 0.0	 0.0	 1	 -30.0	 30.0;
	66	 70	 0.0775854	 0.186854	 0.00374987	 55.84	 55.84	 55.84	 0.0	 0.0	 1	 -30.0	 30.0;
	67	 69	 0.000247637	 0.00109325	 0.0	 99999.0	 99999.0	 99999.0	 0.0	 0.0	 1	 -30.0	 30.0;
	67	 71	 0.01	 0.07	 0.0	 220.0	 220.0	 220.0	 0.0	 0.0	 1	 -30.0	 30.0;
	67	 84	 0.0174435	 0.0973726	 0.062295	 193.76	 193.76	 193.76	 0.0	 0.0	 1	 -30.0	 30.0;
	68	 114	 0.0576338	 0.0976108	 0.00478169	 50.8	 50.8	 50.8	 0.0	 0.0	 1	 -30.0	 30.0;
	68	 540	 0.140015	 0.345219	 0.0176072	 49.46	 49.46	 49.46	 0.0	 0.0	 1	 -30.0	 30.0;
	70	 68	 0.295903	 0.4766	 0.0102401	 66.17	 66.17	 66.17	 0.0	 0.0	 1	 -30.0	 30.0;
	70	 68	 0.295903	 0.4766	 0.0102401	 66.17	 66.17	 66.17	 0.0	 0.0	 1	 -30.0	 30.0;
	71	 73	 0.000258197	 0.00116176	 0.0	 99999.0	 99999.0	 99999.0	 0.0	 0.0	 1	 -30.0	 30.0;
	72	 62	 0.0615458	 0.136756	 0.00335725	 68.81	 68.81	 68.81	 0.0	 0.0	 1	 -30.0	 30.0;
	72	 70	 0.0432172	 0.104951	 0.00449017	 65.12	 65.12	 65.12	 0.0	 0.0	 1	 -30.0	 30.0;
	74	 75	 0.0157799	 0.0362398	 0.00373355	 44.56	 44.56	 44.56	 0.0	 0.0	 1	 -30.0	 30.0;
	75	 77	 0.0160396	 0.051732	 0.00218375	 47.39	 47.39	 47.39	 0.0	 0.0	 1	 -30.0	 30.0;
	76	 78	 0.000244189	 0.00106703	 0.0	 99999.0	 99999.0	 99999.0	 0.0	 0.0	 1	 -30.0	 30.0;
	77	 80	 0.106385	 0.288295	 0.0321868	 43.17	 43.17	 43.17	 0.0	 0.0	 1	 -30.0	 30.0;
	79	 81	 0.000291143	 0.00109582	 0.0	 99999.0	 99999.0	 99999.0	 0.0	 0.0	 1	 -30.0	 30.0;
	79	 583	 0.0107739	 0.0577945	 0.0467452	 203.21	 203.21	 203.21	 0.0	 0.0	 1	 -30.0	 30.0;
	80	 582	 0.136555	 0.418502	 0.00591819	 52.91	 52.91	 52.91	 0.0	 0.0	 1	 -30.0	 30.0;
	82	 80	 0.0670566	 0.179301	 0.00424244	 51.02	 51.02	 51.02	 0.0	 0.0	 1	 -30.0	 30.0;
	83	 85	 0.000215668	 0.00115619	 0.0	 99999.0	 99999.0	 99999.0	 0.0	 0.0	 1	 -30.0	 30.0;
	84	 79	 0.0174229	 0.104359	 0.0364631	 178.64	 178.64	 178.64	 0.0	 0.0	 1	 -30.0	 30.0;
...